1
 SUMMARY VOLUMETRIC BUDGET FOR GSFLOW 
 DATE: 10 07 1980              CUMULATIVE TIME STEP:       7
 MODFLOW STRESS PERIOD      2     CURRENT TIME STEP:       7     ITERATIONS:       6

 -----------------------------------------------------------------------------------

   CUMULATIVE VOLUMES               L**3   RATES FOR THIS TIME STEP           L**3/T
   ------------------                      ------------------------

                                     IN                                         IN
                                     --                                         --
        PRECIPITATION =                            PRECIPITATION =                  
           STREAMFLOW =                               STREAMFLOW =                  
     GW BOUNDARY FLOW =                         GW BOUNDARY FLOW =                  


                                    OUT                                        OUT
                                    ---                                        ---
   EVAPOTRANSPIRATION =          66594.20     EVAPOTRANSPIRATION =           9275.46
           STREAMFLOW =          42957.20             STREAMFLOW =           6065.74
     GW BOUNDARY FLOW =           4541.44       GW BOUNDARY FLOW =            648.70

   INFLOWS - OUTFLOWS =        -114092.84     INFLOWS - OUTFLOWS =         -15989.90
             --------                                   --------

 TOTAL STORAGE CHANGE =        -113697.70         STORAGE CHANGE =         -15928.45
       --------------                             --------------
         LAND SURFACE =                             LAND SURFACE =                  
            SOIL ZONE =          43921.27              SOIL ZONE =           6420.71
     UNSATURATED ZONE =        -144779.35       UNSATURATED ZONE =         -20361.11
       SATURATED ZONE =         -12839.63         SATURATED ZONE =          -1988.04

 OVERALL BUDGET ERROR =           -395.13           BUDGET ERROR =            -61.46


  PERCENT DISCREPANCY =             -0.35    PERCENT DISCREPANCY =             -0.39



1
 SUMMARY VOLUMETRIC BUDGET FOR GSFLOW 
 DATE: 10 14 1980              CUMULATIVE TIME STEP:      14
 MODFLOW STRESS PERIOD      2     CURRENT TIME STEP:      14     ITERATIONS:       6

 -----------------------------------------------------------------------------------

   CUMULATIVE VOLUMES               L**3   RATES FOR THIS TIME STEP           L**3/T
   ------------------                      ------------------------

                                     IN                                         IN
                                     --                                         --
        PRECIPITATION =         650780.39          PRECIPITATION =         164754.68
           STREAMFLOW =                               STREAMFLOW =                  
     GW BOUNDARY FLOW =                         GW BOUNDARY FLOW =                  


                                    OUT                                        OUT
                                    ---                                        ---
   EVAPOTRANSPIRATION =         162754.70     EVAPOTRANSPIRATION =          11478.23
           STREAMFLOW =          94354.10             STREAMFLOW =           7660.27
     GW BOUNDARY FLOW =           9082.95       GW BOUNDARY FLOW =            648.93

   INFLOWS - OUTFLOWS =         384588.65     INFLOWS - OUTFLOWS =         144967.25
             --------                                   --------

 TOTAL STORAGE CHANGE =         385424.71         STORAGE CHANGE =         145028.95
       --------------                             --------------
         LAND SURFACE =         183652.95           LAND SURFACE =         130477.36
            SOIL ZONE =         513849.90              SOIL ZONE =          36586.56
     UNSATURATED ZONE =        -284497.10       UNSATURATED ZONE =         -19623.87
       SATURATED ZONE =         -27581.05         SATURATED ZONE =          -2411.10

 OVERALL BUDGET ERROR =           -836.06           BUDGET ERROR =            -61.70


  PERCENT DISCREPANCY =             -0.13    PERCENT DISCREPANCY =             -0.04



1
 SUMMARY VOLUMETRIC BUDGET FOR GSFLOW 
 DATE: 10 21 1980              CUMULATIVE TIME STEP:      21
 MODFLOW STRESS PERIOD      2     CURRENT TIME STEP:      21     ITERATIONS:       6

 -----------------------------------------------------------------------------------

   CUMULATIVE VOLUMES               L**3   RATES FOR THIS TIME STEP           L**3/T
   ------------------                      ------------------------

                                     IN                                         IN
                                     --                                         --
        PRECIPITATION =         733156.23          PRECIPITATION =                  
           STREAMFLOW =                               STREAMFLOW =                  
     GW BOUNDARY FLOW =                         GW BOUNDARY FLOW =                  


                                    OUT                                        OUT
                                    ---                                        ---
   EVAPOTRANSPIRATION =         433039.30     EVAPOTRANSPIRATION =          44097.23
           STREAMFLOW =         144680.74             STREAMFLOW =           6695.26
     GW BOUNDARY FLOW =          13624.58       GW BOUNDARY FLOW =            648.71

   INFLOWS - OUTFLOWS =         141811.62     INFLOWS - OUTFLOWS =         -51441.20
             --------                                   --------

 TOTAL STORAGE CHANGE =         143096.19         STORAGE CHANGE =         -51371.32
       --------------                             --------------
         LAND SURFACE =        1.5689D-11           LAND SURFACE =                  
            SOIL ZONE =         608334.69              SOIL ZONE =         -29505.88
     UNSATURATED ZONE =        -418645.62       UNSATURATED ZONE =         -18825.49
       SATURATED ZONE =         -46592.88         SATURATED ZONE =          -3039.95

 OVERALL BUDGET ERROR =          -1284.57           BUDGET ERROR =            -69.88


  PERCENT DISCREPANCY =             -0.18    PERCENT DISCREPANCY =             -0.14



1
 SUMMARY VOLUMETRIC BUDGET FOR GSFLOW 
 DATE: 10 28 1980              CUMULATIVE TIME STEP:      28
 MODFLOW STRESS PERIOD      2     CURRENT TIME STEP:      28     ITERATIONS:       6

 -----------------------------------------------------------------------------------

   CUMULATIVE VOLUMES               L**3   RATES FOR THIS TIME STEP           L**3/T
   ------------------                      ------------------------

                                     IN                                         IN
                                     --                                         --
        PRECIPITATION =        1070899.96          PRECIPITATION =                  
           STREAMFLOW =                               STREAMFLOW =                  
     GW BOUNDARY FLOW =                         GW BOUNDARY FLOW =                  


                                    OUT                                        OUT
                                    ---                                        ---
   EVAPOTRANSPIRATION =         623843.11     EVAPOTRANSPIRATION =          24681.28
           STREAMFLOW =         197496.29             STREAMFLOW =           7778.02
     GW BOUNDARY FLOW =          18165.58       GW BOUNDARY FLOW =            648.77

   INFLOWS - OUTFLOWS =         231394.99     INFLOWS - OUTFLOWS =         -33108.07
             --------                                   --------

 TOTAL STORAGE CHANGE =         233195.97         STORAGE CHANGE =         -33033.48
       --------------                             --------------
         LAND SURFACE =          20529.76           LAND SURFACE =         -29848.58
            SOIL ZONE =         829231.70              SOIL ZONE =          18320.07
     UNSATURATED ZONE =        -547293.95       UNSATURATED ZONE =         -18005.75
       SATURATED ZONE =         -69271.54         SATURATED ZONE =          -3499.22

 OVERALL BUDGET ERROR =          -1800.98           BUDGET ERROR =            -74.60


  PERCENT DISCREPANCY =             -0.17    PERCENT DISCREPANCY =             -0.23



1
 SUMMARY VOLUMETRIC BUDGET FOR GSFLOW 
 DATE: 11 04 1980              CUMULATIVE TIME STEP:      35
 MODFLOW STRESS PERIOD      2     CURRENT TIME STEP:      35     ITERATIONS:       6

 -----------------------------------------------------------------------------------

   CUMULATIVE VOLUMES               L**3   RATES FOR THIS TIME STEP           L**3/T
   ------------------                      ------------------------

                                     IN                                         IN
                                     --                                         --
        PRECIPITATION =        1070899.96          PRECIPITATION =                  
           STREAMFLOW =                               STREAMFLOW =                  
     GW BOUNDARY FLOW =                         GW BOUNDARY FLOW =                  


                                    OUT                                        OUT
                                    ---                                        ---
   EVAPOTRANSPIRATION =         962112.82     EVAPOTRANSPIRATION =          43299.46
           STREAMFLOW =         246904.17             STREAMFLOW =           6483.58
     GW BOUNDARY FLOW =          22706.14       GW BOUNDARY FLOW =            648.56

   INFLOWS - OUTFLOWS =        -160823.17     INFLOWS - OUTFLOWS =         -50431.59
             --------                                   --------

 TOTAL STORAGE CHANGE =        -158461.86         STORAGE CHANGE =         -50349.72
       --------------                             --------------
         LAND SURFACE =        2.9630D-12           LAND SURFACE =                  
            SOIL ZONE =         609050.21              SOIL ZONE =         -28798.04
     UNSATURATED ZONE =        -670842.74       UNSATURATED ZONE =         -17371.31
       SATURATED ZONE =         -96669.33         SATURATED ZONE =          -4180.38

 OVERALL BUDGET ERROR =          -2361.31           BUDGET ERROR =            -81.87


  PERCENT DISCREPANCY =             -0.19    PERCENT DISCREPANCY =             -0.16



1
 SUMMARY VOLUMETRIC BUDGET FOR GSFLOW 
 DATE: 11 11 1980              CUMULATIVE TIME STEP:      42
 MODFLOW STRESS PERIOD      2     CURRENT TIME STEP:      42     ITERATIONS:       8

 -----------------------------------------------------------------------------------

   CUMULATIVE VOLUMES               L**3   RATES FOR THIS TIME STEP           L**3/T
   ------------------                      ------------------------

                                     IN                                         IN
                                     --                                         --
        PRECIPITATION =        1573759.34          PRECIPITATION =         255182.10
           STREAMFLOW =                               STREAMFLOW =                  
     GW BOUNDARY FLOW =                         GW BOUNDARY FLOW =                  


                                    OUT                                        OUT
                                    ---                                        ---
   EVAPOTRANSPIRATION =        1194415.21     EVAPOTRANSPIRATION =          17062.44
           STREAMFLOW =         300435.13             STREAMFLOW =          10581.88
     GW BOUNDARY FLOW =          27246.42       GW BOUNDARY FLOW =            648.80

   INFLOWS - OUTFLOWS =          51662.57     INFLOWS - OUTFLOWS =         226888.97
             --------                                   --------

 TOTAL STORAGE CHANGE =          54553.30         STORAGE CHANGE =         226934.26
       --------------                             --------------
         LAND SURFACE =          76836.74           LAND SURFACE =          76836.74
            SOIL ZONE =         893599.37              SOIL ZONE =         170610.49
     UNSATURATED ZONE =        -789270.53       UNSATURATED ZONE =         -16445.89
       SATURATED ZONE =        -126612.28         SATURATED ZONE =          -4067.09

 OVERALL BUDGET ERROR =          -2890.72           BUDGET ERROR =            -45.29


  PERCENT DISCREPANCY =             -0.18    PERCENT DISCREPANCY =             -0.02



1
 SUMMARY VOLUMETRIC BUDGET FOR GSFLOW 
 DATE: 11 18 1980              CUMULATIVE TIME STEP:      49
 MODFLOW STRESS PERIOD      2     CURRENT TIME STEP:      49     ITERATIONS:       6

 -----------------------------------------------------------------------------------

   CUMULATIVE VOLUMES               L**3   RATES FOR THIS TIME STEP           L**3/T
   ------------------                      ------------------------

                                     IN                                         IN
                                     --                                         --
        PRECIPITATION =        1573759.34          PRECIPITATION =                  
           STREAMFLOW =                               STREAMFLOW =                  
     GW BOUNDARY FLOW =                         GW BOUNDARY FLOW =                  


                                    OUT                                        OUT
                                    ---                                        ---
   EVAPOTRANSPIRATION =        1291419.23     EVAPOTRANSPIRATION =          23198.08
           STREAMFLOW =         362257.26             STREAMFLOW =           9063.39
     GW BOUNDARY FLOW =          31788.16       GW BOUNDARY FLOW =            648.84

   INFLOWS - OUTFLOWS =        -111705.32     INFLOWS - OUTFLOWS =         -32910.31
             --------                                   --------

 TOTAL STORAGE CHANGE =        -108299.82         STORAGE CHANGE =         -32824.65
       --------------                             --------------
         LAND SURFACE =           5215.64           LAND SURFACE =          -7688.78
            SOIL ZONE =         948889.67              SOIL ZONE =          -4294.66
     UNSATURATED ZONE =        -903068.78       UNSATURATED ZONE =         -16024.23
       SATURATED ZONE =        -159336.34         SATURATED ZONE =          -4816.98

 OVERALL BUDGET ERROR =          -3405.51           BUDGET ERROR =            -85.66


  PERCENT DISCREPANCY =             -0.20    PERCENT DISCREPANCY =             -0.26



1
 SUMMARY VOLUMETRIC BUDGET FOR GSFLOW 
 DATE: 11 25 1980              CUMULATIVE TIME STEP:      56
 MODFLOW STRESS PERIOD      2     CURRENT TIME STEP:      56     ITERATIONS:       7

 -----------------------------------------------------------------------------------

   CUMULATIVE VOLUMES               L**3   RATES FOR THIS TIME STEP           L**3/T
   ------------------                      ------------------------

                                     IN                                         IN
                                     --                                         --
        PRECIPITATION =        1648813.76          PRECIPITATION =                  
           STREAMFLOW =                               STREAMFLOW =                  
     GW BOUNDARY FLOW =                         GW BOUNDARY FLOW =                  


                                    OUT                                        OUT
                                    ---                                        ---
   EVAPOTRANSPIRATION =        1380691.05     EVAPOTRANSPIRATION =           9280.00
           STREAMFLOW =         424741.71             STREAMFLOW =           9118.68
     GW BOUNDARY FLOW =          36329.99       GW BOUNDARY FLOW =            648.84

   INFLOWS - OUTFLOWS =        -192948.99     INFLOWS - OUTFLOWS =         -19047.52
             --------                                   --------

 TOTAL STORAGE CHANGE =        -188989.77         STORAGE CHANGE =         -18983.02
       --------------                             --------------
         LAND SURFACE =          53010.44           LAND SURFACE =          -9260.11
            SOIL ZONE =         966720.60              SOIL ZONE =          11140.67
     UNSATURATED ZONE =       -1012729.91       UNSATURATED ZONE =         -15407.63
       SATURATED ZONE =        -195990.90         SATURATED ZONE =          -5455.95

 OVERALL BUDGET ERROR =          -3959.22           BUDGET ERROR =            -64.50


  PERCENT DISCREPANCY =             -0.22    PERCENT DISCREPANCY =             -0.34



1
 SUMMARY VOLUMETRIC BUDGET FOR GSFLOW 
 DATE: 12 02 1980              CUMULATIVE TIME STEP:      63
 MODFLOW STRESS PERIOD      2     CURRENT TIME STEP:      63     ITERATIONS:       8

 -----------------------------------------------------------------------------------

   CUMULATIVE VOLUMES               L**3   RATES FOR THIS TIME STEP           L**3/T
   ------------------                      ------------------------

                                     IN                                         IN
                                     --                                         --
        PRECIPITATION =        2076620.74          PRECIPITATION =                  
           STREAMFLOW =                               STREAMFLOW =                  
     GW BOUNDARY FLOW =                         GW BOUNDARY FLOW =                  


                                    OUT                                        OUT
                                    ---                                        ---
   EVAPOTRANSPIRATION =        1591425.81     EVAPOTRANSPIRATION =          35186.81
           STREAMFLOW =         499223.04             STREAMFLOW =          13024.83
     GW BOUNDARY FLOW =          40872.80       GW BOUNDARY FLOW =            649.21

   INFLOWS - OUTFLOWS =         -54900.92     INFLOWS - OUTFLOWS =         -48860.85
             --------                                   --------

 TOTAL STORAGE CHANGE =         -50426.89         STORAGE CHANGE =         -48814.06
       --------------                             --------------
         LAND SURFACE =         139393.91           LAND SURFACE =         -82011.98
            SOIL ZONE =        1159311.06              SOIL ZONE =          51685.59
     UNSATURATED ZONE =       -1115407.14       UNSATURATED ZONE =         -13505.90
       SATURATED ZONE =        -233724.71         SATURATED ZONE =          -4981.76

 OVERALL BUDGET ERROR =          -4474.03           BUDGET ERROR =            -46.80


  PERCENT DISCREPANCY =             -0.21    PERCENT DISCREPANCY =             -0.10



1
 SUMMARY VOLUMETRIC BUDGET FOR GSFLOW 
 DATE: 12 09 1980              CUMULATIVE TIME STEP:      70
 MODFLOW STRESS PERIOD      2     CURRENT TIME STEP:      70     ITERATIONS:       7

 -----------------------------------------------------------------------------------

   CUMULATIVE VOLUMES               L**3   RATES FOR THIS TIME STEP           L**3/T
   ------------------                      ------------------------

                                     IN                                         IN
                                     --                                         --
        PRECIPITATION =        4284363.13          PRECIPITATION =                  
           STREAMFLOW =                               STREAMFLOW =                  
     GW BOUNDARY FLOW =                         GW BOUNDARY FLOW =                  


                                    OUT                                        OUT
                                    ---                                        ---
   EVAPOTRANSPIRATION =        1617981.31     EVAPOTRANSPIRATION =           4180.71
           STREAMFLOW =         584763.40             STREAMFLOW =          12675.38
     GW BOUNDARY FLOW =          45418.06       GW BOUNDARY FLOW =            649.42

   INFLOWS - OUTFLOWS =        2036200.36     INFLOWS - OUTFLOWS =         -17505.51
             --------                                   --------

 TOTAL STORAGE CHANGE =        2041108.16         STORAGE CHANGE =         -17437.70
       --------------                             --------------
         LAND SURFACE =        2318916.46           LAND SURFACE =          -4180.71
            SOIL ZONE =        1210265.48              SOIL ZONE =           6919.08
     UNSATURATED ZONE =       -1214560.29       UNSATURATED ZONE =         -14240.82
       SATURATED ZONE =        -273513.50         SATURATED ZONE =          -5935.25

 OVERALL BUDGET ERROR =          -4907.80           BUDGET ERROR =            -67.81


  PERCENT DISCREPANCY =             -0.11    PERCENT DISCREPANCY =             -0.39



1
 SUMMARY VOLUMETRIC BUDGET FOR GSFLOW 
 DATE: 12 16 1980              CUMULATIVE TIME STEP:      77
 MODFLOW STRESS PERIOD      2     CURRENT TIME STEP:      77     ITERATIONS:       7

 -----------------------------------------------------------------------------------

   CUMULATIVE VOLUMES               L**3   RATES FOR THIS TIME STEP           L**3/T
   ------------------                      ------------------------

                                     IN                                         IN
                                     --                                         --
        PRECIPITATION =        4284363.13          PRECIPITATION =                  
           STREAMFLOW =                               STREAMFLOW =                  
     GW BOUNDARY FLOW =                         GW BOUNDARY FLOW =                  


                                    OUT                                        OUT
                                    ---                                        ---
   EVAPOTRANSPIRATION =        1769403.72     EVAPOTRANSPIRATION =          35291.58
           STREAMFLOW =         692714.07             STREAMFLOW =          23218.84
     GW BOUNDARY FLOW =          49965.10       GW BOUNDARY FLOW =            650.04

   INFLOWS - OUTFLOWS =        1772280.23     INFLOWS - OUTFLOWS =         -59160.46
             --------                                   --------

 TOTAL STORAGE CHANGE =        1777627.04         STORAGE CHANGE =         -59102.32
       --------------                             --------------
         LAND SURFACE =        1970103.78           LAND SURFACE =        -143674.03
            SOIL ZONE =        1426673.47              SOIL ZONE =          98562.95
     UNSATURATED ZONE =       -1305211.43       UNSATURATED ZONE =          -9475.10
       SATURATED ZONE =        -313938.78         SATURATED ZONE =          -4516.14

 OVERALL BUDGET ERROR =          -5346.81           BUDGET ERROR =            -58.14


  PERCENT DISCREPANCY =             -0.12    PERCENT DISCREPANCY =             -0.10



1
 SUMMARY VOLUMETRIC BUDGET FOR GSFLOW 
 DATE: 12 23 1980              CUMULATIVE TIME STEP:      84
 MODFLOW STRESS PERIOD      2     CURRENT TIME STEP:      84     ITERATIONS:      10

 -----------------------------------------------------------------------------------

   CUMULATIVE VOLUMES               L**3   RATES FOR THIS TIME STEP           L**3/T
   ------------------                      ------------------------

                                     IN                                         IN
                                     --                                         --
        PRECIPITATION =        4516755.31          PRECIPITATION =                  
           STREAMFLOW =                               STREAMFLOW =                  
     GW BOUNDARY FLOW =                         GW BOUNDARY FLOW =                  


                                    OUT                                        OUT
                                    ---                                        ---
   EVAPOTRANSPIRATION =        1977106.83     EVAPOTRANSPIRATION =          34761.17
           STREAMFLOW =         926481.23             STREAMFLOW =          32256.34
     GW BOUNDARY FLOW =          54525.54       GW BOUNDARY FLOW =            652.07

   INFLOWS - OUTFLOWS =        1558641.71     INFLOWS - OUTFLOWS =         -67669.58
             --------                                   --------

 TOTAL STORAGE CHANGE =        1564242.94         STORAGE CHANGE =         -67644.01
       --------------                             --------------
         LAND SURFACE =        1251447.77           LAND SURFACE =         -62286.14
            SOIL ZONE =        2002920.97              SOIL ZONE =           4687.95
     UNSATURATED ZONE =       -1348938.83       UNSATURATED ZONE =          -5746.02
       SATURATED ZONE =        -341186.97         SATURATED ZONE =          -4299.81

 OVERALL BUDGET ERROR =          -5601.23           BUDGET ERROR =            -25.58


  PERCENT DISCREPANCY =             -0.12    PERCENT DISCREPANCY =             -0.04



1
 SUMMARY VOLUMETRIC BUDGET FOR GSFLOW 
 DATE: 12 30 1980              CUMULATIVE TIME STEP:      91
 MODFLOW STRESS PERIOD      2     CURRENT TIME STEP:      91     ITERATIONS:      10

 -----------------------------------------------------------------------------------

   CUMULATIVE VOLUMES               L**3   RATES FOR THIS TIME STEP           L**3/T
   ------------------                      ------------------------

                                     IN                                         IN
                                     --                                         --
        PRECIPITATION =        4516755.31          PRECIPITATION =                  
           STREAMFLOW =                               STREAMFLOW =                  
     GW BOUNDARY FLOW =                         GW BOUNDARY FLOW =                  


                                    OUT                                        OUT
                                    ---                                        ---
   EVAPOTRANSPIRATION =        2324193.51     EVAPOTRANSPIRATION =          45753.58
           STREAMFLOW =        1187197.74             STREAMFLOW =          27223.94
     GW BOUNDARY FLOW =          59093.91       GW BOUNDARY FLOW =            652.57

   INFLOWS - OUTFLOWS =         946270.15     INFLOWS - OUTFLOWS =         -73630.09
             --------                                   --------

 TOTAL STORAGE CHANGE =         951983.56         STORAGE CHANGE =         -73618.78
       --------------                             --------------
         LAND SURFACE =         420839.79           LAND SURFACE =         -38430.29
            SOIL ZONE =        2241324.98              SOIL ZONE =         -28518.38
     UNSATURATED ZONE =       -1345738.80       UNSATURATED ZONE =          -2657.86
       SATURATED ZONE =        -364442.41         SATURATED ZONE =          -4012.25

 OVERALL BUDGET ERROR =          -5713.41           BUDGET ERROR =            -11.31


  PERCENT DISCREPANCY =             -0.13    PERCENT DISCREPANCY =             -0.02



1
 SUMMARY VOLUMETRIC BUDGET FOR GSFLOW 
 DATE: 01 06 1981              CUMULATIVE TIME STEP:      98
 MODFLOW STRESS PERIOD      2     CURRENT TIME STEP:      98     ITERATIONS:       8

 -----------------------------------------------------------------------------------

   CUMULATIVE VOLUMES               L**3   RATES FOR THIS TIME STEP           L**3/T
   ------------------                      ------------------------

                                     IN                                         IN
                                     --                                         --
        PRECIPITATION =        5004445.82          PRECIPITATION =                  
           STREAMFLOW =                               STREAMFLOW =                  
     GW BOUNDARY FLOW =                         GW BOUNDARY FLOW =                  


                                    OUT                                        OUT
                                    ---                                        ---
   EVAPOTRANSPIRATION =        2545038.93     EVAPOTRANSPIRATION =          21277.01
           STREAMFLOW =        1330903.96             STREAMFLOW =          19623.30
     GW BOUNDARY FLOW =          63654.52       GW BOUNDARY FLOW =            651.03

   INFLOWS - OUTFLOWS =        1064848.40     INFLOWS - OUTFLOWS =         -41551.34
             --------                                   --------

 TOTAL STORAGE CHANGE =        1070690.69         STORAGE CHANGE =         -41524.53
       --------------                             --------------
         LAND SURFACE =         684453.00           LAND SURFACE =         -29136.99
            SOIL ZONE =        2199503.92              SOIL ZONE =           4632.31
     UNSATURATED ZONE =       -1410855.14       UNSATURATED ZONE =         -11171.75
       SATURATED ZONE =        -402411.09         SATURATED ZONE =          -5848.10

 OVERALL BUDGET ERROR =          -5842.28           BUDGET ERROR =            -26.81


  PERCENT DISCREPANCY =             -0.12    PERCENT DISCREPANCY =             -0.06



1
 SUMMARY VOLUMETRIC BUDGET FOR GSFLOW 
 DATE: 01 13 1981              CUMULATIVE TIME STEP:     105
 MODFLOW STRESS PERIOD      2     CURRENT TIME STEP:     105     ITERATIONS:       7

 -----------------------------------------------------------------------------------

   CUMULATIVE VOLUMES               L**3   RATES FOR THIS TIME STEP           L**3/T
   ------------------                      ------------------------

                                     IN                                         IN
                                     --                                         --
        PRECIPITATION =        5004445.82          PRECIPITATION =                  
           STREAMFLOW =                               STREAMFLOW =                  
     GW BOUNDARY FLOW =                         GW BOUNDARY FLOW =                  


                                    OUT                                        OUT
                                    ---                                        ---
   EVAPOTRANSPIRATION =        2749834.00     EVAPOTRANSPIRATION =          43002.30
           STREAMFLOW =        1481161.08             STREAMFLOW =          20443.36
     GW BOUNDARY FLOW =          68211.28       GW BOUNDARY FLOW =            650.87

   INFLOWS - OUTFLOWS =         705239.45     INFLOWS - OUTFLOWS =         -64096.52
             --------                                   --------

 TOTAL STORAGE CHANGE =         711382.97         STORAGE CHANGE =         -64042.31
       --------------                             --------------
         LAND SURFACE =         424294.58           LAND SURFACE =         -36755.85
            SOIL ZONE =        2198908.84              SOIL ZONE =         -13371.87
     UNSATURATED ZONE =       -1467267.25       UNSATURATED ZONE =          -7552.53
       SATURATED ZONE =        -444553.19         SATURATED ZONE =          -6362.07

 OVERALL BUDGET ERROR =          -6143.52           BUDGET ERROR =            -54.21


  PERCENT DISCREPANCY =             -0.12    PERCENT DISCREPANCY =             -0.08



1
 SUMMARY VOLUMETRIC BUDGET FOR GSFLOW 
 DATE: 01 20 1981              CUMULATIVE TIME STEP:     112
 MODFLOW STRESS PERIOD      2     CURRENT TIME STEP:     112     ITERATIONS:       7

 -----------------------------------------------------------------------------------

   CUMULATIVE VOLUMES               L**3   RATES FOR THIS TIME STEP           L**3/T
   ------------------                      ------------------------

                                     IN                                         IN
                                     --                                         --
        PRECIPITATION =        5170468.48          PRECIPITATION =          41503.16
           STREAMFLOW =                               STREAMFLOW =                  
     GW BOUNDARY FLOW =                         GW BOUNDARY FLOW =                  


                                    OUT                                        OUT
                                    ---                                        ---
   EVAPOTRANSPIRATION =        3045615.56     EVAPOTRANSPIRATION =          53697.13
           STREAMFLOW =        1610356.25             STREAMFLOW =          17661.90
     GW BOUNDARY FLOW =          72765.11       GW BOUNDARY FLOW =            650.40

   INFLOWS - OUTFLOWS =         441731.56     INFLOWS - OUTFLOWS =         -30506.27
             --------                                   --------

 TOTAL STORAGE CHANGE =         448200.18         STORAGE CHANGE =         -30451.27
       --------------                             --------------
         LAND SURFACE =         311660.29           LAND SURFACE =          10936.41
            SOIL ZONE =        2135200.74              SOIL ZONE =         -30760.38
     UNSATURATED ZONE =       -1506196.48       UNSATURATED ZONE =          -3490.27
       SATURATED ZONE =        -492464.37         SATURATED ZONE =          -7137.02

 OVERALL BUDGET ERROR =          -6468.62           BUDGET ERROR =            -55.00


  PERCENT DISCREPANCY =             -0.13    PERCENT DISCREPANCY =             -0.08



1
 SUMMARY VOLUMETRIC BUDGET FOR GSFLOW 
 DATE: 01 27 1981              CUMULATIVE TIME STEP:     119
 MODFLOW STRESS PERIOD      2     CURRENT TIME STEP:     119     ITERATIONS:       8

 -----------------------------------------------------------------------------------

   CUMULATIVE VOLUMES               L**3   RATES FOR THIS TIME STEP           L**3/T
   ------------------                      ------------------------

                                     IN                                         IN
                                     --                                         --
        PRECIPITATION =        8646542.90          PRECIPITATION =        2936504.96
           STREAMFLOW =                               STREAMFLOW =                  
     GW BOUNDARY FLOW =                         GW BOUNDARY FLOW =                  


                                    OUT                                        OUT
                                    ---                                        ---
   EVAPOTRANSPIRATION =        3272234.49     EVAPOTRANSPIRATION =          12593.32
           STREAMFLOW =        1733116.39             STREAMFLOW =          17138.78
     GW BOUNDARY FLOW =          77317.01       GW BOUNDARY FLOW =            650.20

   INFLOWS - OUTFLOWS =        3563875.01     INFLOWS - OUTFLOWS =        2906122.67
             --------                                   --------

 TOTAL STORAGE CHANGE =        3570597.67         STORAGE CHANGE =        2906160.72
       --------------                             --------------
         LAND SURFACE =        3477097.09           LAND SURFACE =        2923911.72
            SOIL ZONE =        2164487.22              SOIL ZONE =          -2742.93
     UNSATURATED ZONE =       -1528930.70       UNSATURATED ZONE =          -7587.13
       SATURATED ZONE =        -542055.93         SATURATED ZONE =          -7420.94

 OVERALL BUDGET ERROR =          -6722.66           BUDGET ERROR =            -38.05


  PERCENT DISCREPANCY =             -0.08    PERCENT DISCREPANCY =              0.00



1
 SUMMARY VOLUMETRIC BUDGET FOR GSFLOW 
 DATE: 02 03 1981              CUMULATIVE TIME STEP:     126
 MODFLOW STRESS PERIOD      2     CURRENT TIME STEP:     126     ITERATIONS:       8

 -----------------------------------------------------------------------------------

   CUMULATIVE VOLUMES               L**3   RATES FOR THIS TIME STEP           L**3/T
   ------------------                      ------------------------

                                     IN                                         IN
                                     --                                         --
        PRECIPITATION =        1.1739D+07          PRECIPITATION =                  
           STREAMFLOW =                               STREAMFLOW =                  
     GW BOUNDARY FLOW =                         GW BOUNDARY FLOW =                  


                                    OUT                                        OUT
                                    ---                                        ---
   EVAPOTRANSPIRATION =        3309582.97     EVAPOTRANSPIRATION =           8130.85
           STREAMFLOW =        1854384.50             STREAMFLOW =          17553.96
     GW BOUNDARY FLOW =          81868.17       GW BOUNDARY FLOW =            650.18

   INFLOWS - OUTFLOWS =        6492862.14     INFLOWS - OUTFLOWS =         -26334.99
             --------                                   --------

 TOTAL STORAGE CHANGE =        6499920.83         STORAGE CHANGE =         -26298.17
       --------------                             --------------
         LAND SURFACE =        6531903.49           LAND SURFACE =          -8130.85
            SOIL ZONE =        2167104.04              SOIL ZONE =           1068.42
     UNSATURATED ZONE =       -1602468.27       UNSATURATED ZONE =         -11281.49
       SATURATED ZONE =        -596618.43         SATURATED ZONE =          -7954.24

 OVERALL BUDGET ERROR =          -7058.69           BUDGET ERROR =            -36.82


  PERCENT DISCREPANCY =             -0.06    PERCENT DISCREPANCY =             -0.14



1
 SUMMARY VOLUMETRIC BUDGET FOR GSFLOW 
 DATE: 02 10 1981              CUMULATIVE TIME STEP:     133
 MODFLOW STRESS PERIOD      2     CURRENT TIME STEP:     133     ITERATIONS:       7

 -----------------------------------------------------------------------------------

   CUMULATIVE VOLUMES               L**3   RATES FOR THIS TIME STEP           L**3/T
   ------------------                      ------------------------

                                     IN                                         IN
                                     --                                         --
        PRECIPITATION =        1.1838D+07          PRECIPITATION =                  
           STREAMFLOW =                               STREAMFLOW =                  
     GW BOUNDARY FLOW =                         GW BOUNDARY FLOW =                  


                                    OUT                                        OUT
                                    ---                                        ---
   EVAPOTRANSPIRATION =        3443389.50     EVAPOTRANSPIRATION =          34657.17
           STREAMFLOW =        1978618.66             STREAMFLOW =          17840.86
     GW BOUNDARY FLOW =          86419.57       GW BOUNDARY FLOW =            650.20

   INFLOWS - OUTFLOWS =        6329835.51     INFLOWS - OUTFLOWS =         -53148.24
             --------                                   --------

 TOTAL STORAGE CHANGE =        6337272.95         STORAGE CHANGE =         -53090.04
       --------------                             --------------
         LAND SURFACE =        6497662.42           LAND SURFACE =         -34657.17
            SOIL ZONE =        2173460.35              SOIL ZONE =            767.27
     UNSATURATED ZONE =       -1679080.90       UNSATURATED ZONE =         -10626.26
       SATURATED ZONE =        -654768.92         SATURATED ZONE =          -8573.89

 OVERALL BUDGET ERROR =          -7437.44           BUDGET ERROR =            -58.20


  PERCENT DISCREPANCY =             -0.06    PERCENT DISCREPANCY =             -0.11



1
 SUMMARY VOLUMETRIC BUDGET FOR GSFLOW 
 DATE: 02 17 1981              CUMULATIVE TIME STEP:     140
 MODFLOW STRESS PERIOD      2     CURRENT TIME STEP:     140     ITERATIONS:      14

 -----------------------------------------------------------------------------------

   CUMULATIVE VOLUMES               L**3   RATES FOR THIS TIME STEP           L**3/T
   ------------------                      ------------------------

                                     IN                                         IN
                                     --                                         --
        PRECIPITATION =        1.2765D+07          PRECIPITATION =          68928.68
           STREAMFLOW =                               STREAMFLOW =                  
     GW BOUNDARY FLOW =                         GW BOUNDARY FLOW =                  


                                    OUT                                        OUT
                                    ---                                        ---
   EVAPOTRANSPIRATION =        3787058.12     EVAPOTRANSPIRATION =          68355.42
           STREAMFLOW =        2504682.72             STREAMFLOW =         125398.32
     GW BOUNDARY FLOW =          90992.46       GW BOUNDARY FLOW =            656.75

   INFLOWS - OUTFLOWS =        6382247.38     INFLOWS - OUTFLOWS =        -125481.81
             --------                                   --------

 TOTAL STORAGE CHANGE =        6389912.37         STORAGE CHANGE =        -125482.56
       --------------                             --------------
         LAND SURFACE =        5534335.39           LAND SURFACE =        -289554.73
            SOIL ZONE =        2964519.23              SOIL ZONE =          81063.17
     UNSATURATED ZONE =       -1435006.30       UNSATURATED ZONE =          80748.71
       SATURATED ZONE =        -673935.95         SATURATED ZONE =           2260.28

 OVERALL BUDGET ERROR =          -7664.99           BUDGET ERROR =              0.75


  PERCENT DISCREPANCY =             -0.06    PERCENT DISCREPANCY =              0.00



1
 SUMMARY VOLUMETRIC BUDGET FOR GSFLOW 
 DATE: 02 24 1981              CUMULATIVE TIME STEP:     147
 MODFLOW STRESS PERIOD      2     CURRENT TIME STEP:     147     ITERATIONS:      14

 -----------------------------------------------------------------------------------

   CUMULATIVE VOLUMES               L**3   RATES FOR THIS TIME STEP           L**3/T
   ------------------                      ------------------------

                                     IN                                         IN
                                     --                                         --
        PRECIPITATION =        1.3179D+07          PRECIPITATION =         344647.71
           STREAMFLOW =                               STREAMFLOW =                  
     GW BOUNDARY FLOW =                         GW BOUNDARY FLOW =                  


                                    OUT                                        OUT
                                    ---                                        ---
   EVAPOTRANSPIRATION =        4137387.16     EVAPOTRANSPIRATION =          19832.91
           STREAMFLOW =        3099379.92             STREAMFLOW =          54373.24
     GW BOUNDARY FLOW =          95588.14       GW BOUNDARY FLOW =            655.59

   INFLOWS - OUTFLOWS =        5846203.23     INFLOWS - OUTFLOWS =         269785.96
             --------                                   --------

 TOTAL STORAGE CHANGE =        5853764.96         STORAGE CHANGE =         269764.85
       --------------                             --------------
         LAND SURFACE =        4829515.08           LAND SURFACE =         299400.04
            SOIL ZONE =        2720068.28              SOIL ZONE =         -64691.28
     UNSATURATED ZONE =       -1045396.07       UNSATURATED ZONE =          32263.50
       SATURATED ZONE =        -650422.32         SATURATED ZONE =           2792.58

 OVERALL BUDGET ERROR =          -7561.73           BUDGET ERROR =             21.12


  PERCENT DISCREPANCY =             -0.06    PERCENT DISCREPANCY =              0.01



1
 SUMMARY VOLUMETRIC BUDGET FOR GSFLOW 
 DATE: 03 03 1981              CUMULATIVE TIME STEP:     154
 MODFLOW STRESS PERIOD      2     CURRENT TIME STEP:     154     ITERATIONS:      11

 -----------------------------------------------------------------------------------

   CUMULATIVE VOLUMES               L**3   RATES FOR THIS TIME STEP           L**3/T
   ------------------                      ------------------------

                                     IN                                         IN
                                     --                                         --
        PRECIPITATION =        1.3447D+07          PRECIPITATION =                  
           STREAMFLOW =                               STREAMFLOW =                  
     GW BOUNDARY FLOW =                         GW BOUNDARY FLOW =                  


                                    OUT                                        OUT
                                    ---                                        ---
   EVAPOTRANSPIRATION =        4300010.27     EVAPOTRANSPIRATION =          44519.47
           STREAMFLOW =        3328565.73             STREAMFLOW =          27878.63
     GW BOUNDARY FLOW =         100162.36       GW BOUNDARY FLOW =            652.37

   INFLOWS - OUTFLOWS =        5717880.43     INFLOWS - OUTFLOWS =         -73050.47
             --------                                   --------

 TOTAL STORAGE CHANGE =        5725274.41         STORAGE CHANGE =         -73080.89
       --------------                             --------------
         LAND SURFACE =        4913202.35           LAND SURFACE =         -64487.00
            SOIL ZONE =        2491326.86              SOIL ZONE =           1364.68
     UNSATURATED ZONE =       -1027382.83       UNSATURATED ZONE =          -8042.56
       SATURATED ZONE =        -651871.96         SATURATED ZONE =          -1916.02

 OVERALL BUDGET ERROR =          -7393.99           BUDGET ERROR =             30.42


  PERCENT DISCREPANCY =             -0.05    PERCENT DISCREPANCY =              0.04



1
 SUMMARY VOLUMETRIC BUDGET FOR GSFLOW 
 DATE: 03 10 1981              CUMULATIVE TIME STEP:     161
 MODFLOW STRESS PERIOD      2     CURRENT TIME STEP:     161     ITERATIONS:      12

 -----------------------------------------------------------------------------------

   CUMULATIVE VOLUMES               L**3   RATES FOR THIS TIME STEP           L**3/T
   ------------------                      ------------------------

                                     IN                                         IN
                                     --                                         --
        PRECIPITATION =        1.3493D+07          PRECIPITATION =                  
           STREAMFLOW =                               STREAMFLOW =                  
     GW BOUNDARY FLOW =                         GW BOUNDARY FLOW =                  


                                    OUT                                        OUT
                                    ---                                        ---
   EVAPOTRANSPIRATION =        4617611.54     EVAPOTRANSPIRATION =          63390.22
           STREAMFLOW =        3572426.45             STREAMFLOW =          46010.61
     GW BOUNDARY FLOW =         104729.30       GW BOUNDARY FLOW =            653.15

   INFLOWS - OUTFLOWS =        5198187.23     INFLOWS - OUTFLOWS =        -110053.98
             --------                                   --------

 TOTAL STORAGE CHANGE =        5205459.49         STORAGE CHANGE =        -110068.55
       --------------                             --------------
         LAND SURFACE =        4224656.68           LAND SURFACE =        -169295.99
            SOIL ZONE =        2626876.92              SOIL ZONE =          34536.47
     UNSATURATED ZONE =        -984924.18       UNSATURATED ZONE =          24286.20
       SATURATED ZONE =        -661149.93         SATURATED ZONE =            404.78

 OVERALL BUDGET ERROR =          -7272.26           BUDGET ERROR =             14.57


  PERCENT DISCREPANCY =             -0.05    PERCENT DISCREPANCY =              0.01



1
 SUMMARY VOLUMETRIC BUDGET FOR GSFLOW 
 DATE: 03 17 1981              CUMULATIVE TIME STEP:     168
 MODFLOW STRESS PERIOD      2     CURRENT TIME STEP:     168     ITERATIONS:      10

 -----------------------------------------------------------------------------------

   CUMULATIVE VOLUMES               L**3   RATES FOR THIS TIME STEP           L**3/T
   ------------------                      ------------------------

                                     IN                                         IN
                                     --                                         --
        PRECIPITATION =        1.3745D+07          PRECIPITATION =                  
           STREAMFLOW =                               STREAMFLOW =                  
     GW BOUNDARY FLOW =                         GW BOUNDARY FLOW =                  


                                    OUT                                        OUT
                                    ---                                        ---
   EVAPOTRANSPIRATION =        4974109.70     EVAPOTRANSPIRATION =          39557.19
           STREAMFLOW =        3811800.53             STREAMFLOW =          24427.15
     GW BOUNDARY FLOW =         109298.27       GW BOUNDARY FLOW =            652.08

   INFLOWS - OUTFLOWS =        4849294.31     INFLOWS - OUTFLOWS =         -64636.43
             --------                                   --------

 TOTAL STORAGE CHANGE =        4856431.16         STORAGE CHANGE =         -64643.38
       --------------                             --------------
         LAND SURFACE =        4033841.14           LAND SURFACE =         -39206.25
            SOIL ZONE =        2446234.46              SOIL ZONE =          -6163.47
     UNSATURATED ZONE =        -951175.00       UNSATURATED ZONE =         -15381.16
       SATURATED ZONE =        -672469.43         SATURATED ZONE =          -3892.50

 OVERALL BUDGET ERROR =          -7136.85           BUDGET ERROR =              6.95


  PERCENT DISCREPANCY =             -0.05    PERCENT DISCREPANCY =              0.01



1
 SUMMARY VOLUMETRIC BUDGET FOR GSFLOW 
 DATE: 03 24 1981              CUMULATIVE TIME STEP:     175
 MODFLOW STRESS PERIOD      2     CURRENT TIME STEP:     175     ITERATIONS:      10

 -----------------------------------------------------------------------------------

   CUMULATIVE VOLUMES               L**3   RATES FOR THIS TIME STEP           L**3/T
   ------------------                      ------------------------

                                     IN                                         IN
                                     --                                         --
        PRECIPITATION =        1.4367D+07          PRECIPITATION =                  
           STREAMFLOW =                               STREAMFLOW =                  
     GW BOUNDARY FLOW =                         GW BOUNDARY FLOW =                  


                                    OUT                                        OUT
                                    ---                                        ---
   EVAPOTRANSPIRATION =        5327182.14     EVAPOTRANSPIRATION =          85696.82
           STREAMFLOW =        3985940.21             STREAMFLOW =          27901.30
     GW BOUNDARY FLOW =         113859.11       GW BOUNDARY FLOW =            651.50

   INFLOWS - OUTFLOWS =        4939774.77     INFLOWS - OUTFLOWS =        -114249.62
             --------                                   --------

 TOTAL STORAGE CHANGE =        4946882.43         STORAGE CHANGE =        -114257.24
       --------------                             --------------
         LAND SURFACE =        4329542.15           LAND SURFACE =         -79789.46
            SOIL ZONE =        2349149.05              SOIL ZONE =         -26528.39
     UNSATURATED ZONE =       -1028719.98       UNSATURATED ZONE =          -3595.13
       SATURATED ZONE =        -703088.79         SATURATED ZONE =          -4344.26

 OVERALL BUDGET ERROR =          -7107.67           BUDGET ERROR =              7.62


  PERCENT DISCREPANCY =             -0.05    PERCENT DISCREPANCY =              0.01



1
 SUMMARY VOLUMETRIC BUDGET FOR GSFLOW 
 DATE: 03 31 1981              CUMULATIVE TIME STEP:     182
 MODFLOW STRESS PERIOD      2     CURRENT TIME STEP:     182     ITERATIONS:      12

 -----------------------------------------------------------------------------------

   CUMULATIVE VOLUMES               L**3   RATES FOR THIS TIME STEP           L**3/T
   ------------------                      ------------------------

                                     IN                                         IN
                                     --                                         --
        PRECIPITATION =        1.5777D+07          PRECIPITATION =                  
           STREAMFLOW =                               STREAMFLOW =                  
     GW BOUNDARY FLOW =                         GW BOUNDARY FLOW =                  


                                    OUT                                        OUT
                                    ---                                        ---
   EVAPOTRANSPIRATION =        5752691.50     EVAPOTRANSPIRATION =          55421.24
           STREAMFLOW =        4474045.87             STREAMFLOW =          36330.32
     GW BOUNDARY FLOW =         118440.24       GW BOUNDARY FLOW =            653.43

   INFLOWS - OUTFLOWS =        5431588.59     INFLOWS - OUTFLOWS =         -92404.99
             --------                                   --------

 TOTAL STORAGE CHANGE =        5438592.89         STORAGE CHANGE =         -92432.41
       --------------                             --------------
         LAND SURFACE =        4432638.57           LAND SURFACE =         -58717.79
            SOIL ZONE =        2529345.09              SOIL ZONE =         -34926.38
     UNSATURATED ZONE =        -827419.78       UNSATURATED ZONE =           1873.24
       SATURATED ZONE =        -695970.99         SATURATED ZONE =           -661.48

 OVERALL BUDGET ERROR =          -7004.30           BUDGET ERROR =             27.42


  PERCENT DISCREPANCY =             -0.04    PERCENT DISCREPANCY =              0.03



1
 SUMMARY VOLUMETRIC BUDGET FOR GSFLOW 
 DATE: 04 07 1981              CUMULATIVE TIME STEP:     189
 MODFLOW STRESS PERIOD      2     CURRENT TIME STEP:     189     ITERATIONS:      10

 -----------------------------------------------------------------------------------

   CUMULATIVE VOLUMES               L**3   RATES FOR THIS TIME STEP           L**3/T
   ------------------                      ------------------------

                                     IN                                         IN
                                     --                                         --
        PRECIPITATION =        1.6121D+07          PRECIPITATION =                  
           STREAMFLOW =                               STREAMFLOW =                  
     GW BOUNDARY FLOW =                         GW BOUNDARY FLOW =                  


                                    OUT                                        OUT
                                    ---                                        ---
   EVAPOTRANSPIRATION =        6398296.09     EVAPOTRANSPIRATION =         106275.95
           STREAMFLOW =        4803321.08             STREAMFLOW =          44771.96
     GW BOUNDARY FLOW =         123016.61       GW BOUNDARY FLOW =            653.92

   INFLOWS - OUTFLOWS =        4796849.37     INFLOWS - OUTFLOWS =        -151701.82
             --------                                   --------

 TOTAL STORAGE CHANGE =        4803701.53         STORAGE CHANGE =        -151733.90
       --------------                             --------------
         LAND SURFACE =        3767143.97           LAND SURFACE =        -143278.14
            SOIL ZONE =        2473296.13              SOIL ZONE =         -20743.59
     UNSATURATED ZONE =        -748342.58       UNSATURATED ZONE =          11111.79
       SATURATED ZONE =        -688396.00         SATURATED ZONE =           1176.04

 OVERALL BUDGET ERROR =          -6852.16           BUDGET ERROR =             32.07


  PERCENT DISCREPANCY =             -0.04    PERCENT DISCREPANCY =              0.02



1
 SUMMARY VOLUMETRIC BUDGET FOR GSFLOW 
 DATE: 04 14 1981              CUMULATIVE TIME STEP:     196
 MODFLOW STRESS PERIOD      2     CURRENT TIME STEP:     196     ITERATIONS:      14

 -----------------------------------------------------------------------------------

   CUMULATIVE VOLUMES               L**3   RATES FOR THIS TIME STEP           L**3/T
   ------------------                      ------------------------

                                     IN                                         IN
                                     --                                         --
        PRECIPITATION =        1.6121D+07          PRECIPITATION =                  
           STREAMFLOW =                               STREAMFLOW =                  
     GW BOUNDARY FLOW =                         GW BOUNDARY FLOW =                  


                                    OUT                                        OUT
                                    ---                                        ---
   EVAPOTRANSPIRATION =        7325327.13     EVAPOTRANSPIRATION =         190847.08
           STREAMFLOW =        5123645.74             STREAMFLOW =          52140.11
     GW BOUNDARY FLOW =         127591.67       GW BOUNDARY FLOW =            653.38

   INFLOWS - OUTFLOWS =        3544918.61     INFLOWS - OUTFLOWS =        -243640.56
             --------                                   --------

 TOTAL STORAGE CHANGE =        3551583.43         STORAGE CHANGE =        -243655.93
       --------------                             --------------
         LAND SURFACE =        2538983.53           LAND SURFACE =        -242854.01
            SOIL ZONE =        2357107.27              SOIL ZONE =         -20834.46
     UNSATURATED ZONE =        -665950.12       UNSATURATED ZONE =          17555.95
       SATURATED ZONE =        -678557.24         SATURATED ZONE =           2476.58

 OVERALL BUDGET ERROR =          -6664.82           BUDGET ERROR =             15.37


  PERCENT DISCREPANCY =             -0.04    PERCENT DISCREPANCY =              0.01



1
 SUMMARY VOLUMETRIC BUDGET FOR GSFLOW 
 DATE: 04 21 1981              CUMULATIVE TIME STEP:     203
 MODFLOW STRESS PERIOD      2     CURRENT TIME STEP:     203     ITERATIONS:      12

 -----------------------------------------------------------------------------------

   CUMULATIVE VOLUMES               L**3   RATES FOR THIS TIME STEP           L**3/T
   ------------------                      ------------------------

                                     IN                                         IN
                                     --                                         --
        PRECIPITATION =        1.6310D+07          PRECIPITATION =                  
           STREAMFLOW =                               STREAMFLOW =                  
     GW BOUNDARY FLOW =                         GW BOUNDARY FLOW =                  


                                    OUT                                        OUT
                                    ---                                        ---
   EVAPOTRANSPIRATION =        8392851.07     EVAPOTRANSPIRATION =         151883.97
           STREAMFLOW =        5441485.07             STREAMFLOW =          43033.89
     GW BOUNDARY FLOW =         132160.77       GW BOUNDARY FLOW =            652.33

   INFLOWS - OUTFLOWS =        2343760.50     INFLOWS - OUTFLOWS =        -195570.18
             --------                                   --------

 TOTAL STORAGE CHANGE =        2350254.76         STORAGE CHANGE =        -195598.29
       --------------                             --------------
         LAND SURFACE =        1384119.90           LAND SURFACE =        -119755.07
            SOIL ZONE =        2188161.27              SOIL ZONE =         -93232.11
     UNSATURATED ZONE =        -562022.01       UNSATURATED ZONE =          14667.22
       SATURATED ZONE =        -660004.40         SATURATED ZONE =           2721.67

 OVERALL BUDGET ERROR =          -6494.27           BUDGET ERROR =             28.10


  PERCENT DISCREPANCY =             -0.04    PERCENT DISCREPANCY =              0.01



1
 SUMMARY VOLUMETRIC BUDGET FOR GSFLOW 
 DATE: 04 28 1981              CUMULATIVE TIME STEP:     210
 MODFLOW STRESS PERIOD      2     CURRENT TIME STEP:     210     ITERATIONS:      14

 -----------------------------------------------------------------------------------

   CUMULATIVE VOLUMES               L**3   RATES FOR THIS TIME STEP           L**3/T
   ------------------                      ------------------------

                                     IN                                         IN
                                     --                                         --
        PRECIPITATION =        1.6515D+07          PRECIPITATION =                  
           STREAMFLOW =                               STREAMFLOW =                  
     GW BOUNDARY FLOW =                         GW BOUNDARY FLOW =                  


                                    OUT                                        OUT
                                    ---                                        ---
   EVAPOTRANSPIRATION =        9623685.03     EVAPOTRANSPIRATION =         199311.33
           STREAMFLOW =        5632254.81             STREAMFLOW =          21270.25
     GW BOUNDARY FLOW =         136718.12       GW BOUNDARY FLOW =            650.16

   INFLOWS - OUTFLOWS =        1122789.00     INFLOWS - OUTFLOWS =        -221231.74
             --------                                   --------

 TOTAL STORAGE CHANGE =        1129145.73         STORAGE CHANGE =        -221248.21
       --------------                             --------------
         LAND SURFACE =         670655.38           LAND SURFACE =         -75435.37
            SOIL ZONE =        1681471.10              SOIL ZONE =        -139484.18
     UNSATURATED ZONE =        -565200.11       UNSATURATED ZONE =          -5618.41
       SATURATED ZONE =        -657780.65         SATURATED ZONE =           -710.26

 OVERALL BUDGET ERROR =          -6356.73           BUDGET ERROR =             16.47


  PERCENT DISCREPANCY =             -0.04    PERCENT DISCREPANCY =              0.01



1
 SUMMARY VOLUMETRIC BUDGET FOR GSFLOW 
 DATE: 05 05 1981              CUMULATIVE TIME STEP:     217
 MODFLOW STRESS PERIOD      2     CURRENT TIME STEP:     217     ITERATIONS:      14

 -----------------------------------------------------------------------------------

   CUMULATIVE VOLUMES               L**3   RATES FOR THIS TIME STEP           L**3/T
   ------------------                      ------------------------

                                     IN                                         IN
                                     --                                         --
        PRECIPITATION =        1.6515D+07          PRECIPITATION =                  
           STREAMFLOW =                               STREAMFLOW =                  
     GW BOUNDARY FLOW =                         GW BOUNDARY FLOW =                  


                                    OUT                                        OUT
                                    ---                                        ---
   EVAPOTRANSPIRATION =        1.0514D+07     EVAPOTRANSPIRATION =          57183.21
           STREAMFLOW =        5722515.24             STREAMFLOW =           9747.28
     GW BOUNDARY FLOW =         141262.48       GW BOUNDARY FLOW =            648.60

   INFLOWS - OUTFLOWS =         137738.96     INFLOWS - OUTFLOWS =         -67579.09
             --------                                   --------

 TOTAL STORAGE CHANGE =         144013.94         STORAGE CHANGE =         -67589.01
       --------------                             --------------
         LAND SURFACE =         356187.80           LAND SURFACE =         -16264.35
            SOIL ZONE =        1129623.26              SOIL ZONE =         -31773.14
     UNSATURATED ZONE =        -667869.93       UNSATURATED ZONE =         -16379.81
       SATURATED ZONE =        -673927.19         SATURATED ZONE =          -3171.72

 OVERALL BUDGET ERROR =          -6274.98           BUDGET ERROR =              9.92


  PERCENT DISCREPANCY =             -0.04    PERCENT DISCREPANCY =              0.01



1
 SUMMARY VOLUMETRIC BUDGET FOR GSFLOW 
 DATE: 05 12 1981              CUMULATIVE TIME STEP:     224
 MODFLOW STRESS PERIOD      2     CURRENT TIME STEP:     224     ITERATIONS:      12

 -----------------------------------------------------------------------------------

   CUMULATIVE VOLUMES               L**3   RATES FOR THIS TIME STEP           L**3/T
   ------------------                      ------------------------

                                     IN                                         IN
                                     --                                         --
        PRECIPITATION =        1.6515D+07          PRECIPITATION =                  
           STREAMFLOW =                               STREAMFLOW =                  
     GW BOUNDARY FLOW =                         GW BOUNDARY FLOW =                  


                                    OUT                                        OUT
                                    ---                                        ---
   EVAPOTRANSPIRATION =        1.1017D+07     EVAPOTRANSPIRATION =          89577.01
           STREAMFLOW =        5788476.08             STREAMFLOW =           9940.46
     GW BOUNDARY FLOW =         145800.29       GW BOUNDARY FLOW =            648.14

   INFLOWS - OUTFLOWS =        -435917.86     INFLOWS - OUTFLOWS =        -100165.61
             --------                                   --------

 TOTAL STORAGE CHANGE =        -429724.69         STORAGE CHANGE =        -100176.83
       --------------                             --------------
         LAND SURFACE =         214908.42           LAND SURFACE =         -25278.09
            SOIL ZONE =         834515.94              SOIL ZONE =         -56053.96
     UNSATURATED ZONE =        -773764.96       UNSATURATED ZONE =         -13346.43
       SATURATED ZONE =        -705384.09         SATURATED ZONE =          -5498.35

 OVERALL BUDGET ERROR =          -6193.17           BUDGET ERROR =             11.22


  PERCENT DISCREPANCY =             -0.04    PERCENT DISCREPANCY =              0.01



1
 SUMMARY VOLUMETRIC BUDGET FOR GSFLOW 
 DATE: 05 19 1981              CUMULATIVE TIME STEP:     231
 MODFLOW STRESS PERIOD      2     CURRENT TIME STEP:     231     ITERATIONS:      16

 -----------------------------------------------------------------------------------

   CUMULATIVE VOLUMES               L**3   RATES FOR THIS TIME STEP           L**3/T
   ------------------                      ------------------------

                                     IN                                         IN
                                     --                                         --
        PRECIPITATION =        1.7837D+07          PRECIPITATION =         169047.83
           STREAMFLOW =                               STREAMFLOW =                  
     GW BOUNDARY FLOW =                         GW BOUNDARY FLOW =                  


                                    OUT                                        OUT
                                    ---                                        ---
   EVAPOTRANSPIRATION =        1.1413D+07     EVAPOTRANSPIRATION =          34209.10
           STREAMFLOW =        5905840.21             STREAMFLOW =          21400.77
     GW BOUNDARY FLOW =         150339.10       GW BOUNDARY FLOW =            649.25

   INFLOWS - OUTFLOWS =         368344.75     INFLOWS - OUTFLOWS =         112788.71
             --------                                   --------

 TOTAL STORAGE CHANGE =         374491.82         STORAGE CHANGE =         112782.87
       --------------                             --------------
         LAND SURFACE =         192351.64           LAND SURFACE =          21801.38
            SOIL ZONE =        1774160.10              SOIL ZONE =         100760.81
     UNSATURATED ZONE =        -844388.26       UNSATURATED ZONE =          -3324.15
       SATURATED ZONE =        -747631.67         SATURATED ZONE =          -6455.17

 OVERALL BUDGET ERROR =          -6147.06           BUDGET ERROR =              5.83


  PERCENT DISCREPANCY =             -0.03    PERCENT DISCREPANCY =              0.00



1
 SUMMARY VOLUMETRIC BUDGET FOR GSFLOW 
 DATE: 05 26 1981              CUMULATIVE TIME STEP:     238
 MODFLOW STRESS PERIOD      2     CURRENT TIME STEP:     238     ITERATIONS:      15

 -----------------------------------------------------------------------------------

   CUMULATIVE VOLUMES               L**3   RATES FOR THIS TIME STEP           L**3/T
   ------------------                      ------------------------

                                     IN                                         IN
                                     --                                         --
        PRECIPITATION =        1.8252D+07          PRECIPITATION =         284301.98
           STREAMFLOW =                               STREAMFLOW =                  
     GW BOUNDARY FLOW =                         GW BOUNDARY FLOW =                  


                                    OUT                                        OUT
                                    ---                                        ---
   EVAPOTRANSPIRATION =        1.2320D+07     EVAPOTRANSPIRATION =         145738.36
           STREAMFLOW =        6001623.75             STREAMFLOW =          17349.36
     GW BOUNDARY FLOW =         154878.68       GW BOUNDARY FLOW =            648.32

   INFLOWS - OUTFLOWS =        -224971.62     INFLOWS - OUTFLOWS =         120565.95
             --------                                   --------

 TOTAL STORAGE CHANGE =        -218859.90         STORAGE CHANGE =         120557.76
       --------------                             --------------
         LAND SURFACE =         117361.58           LAND SURFACE =          -7358.34
            SOIL ZONE =        1373858.67              SOIL ZONE =         145542.90
     UNSATURATED ZONE =        -913004.28       UNSATURATED ZONE =         -11015.91
       SATURATED ZONE =        -797075.88         SATURATED ZONE =          -6610.89

 OVERALL BUDGET ERROR =          -6111.71           BUDGET ERROR =              8.18


  PERCENT DISCREPANCY =             -0.03    PERCENT DISCREPANCY =              0.00



1
 SUMMARY VOLUMETRIC BUDGET FOR GSFLOW 
 DATE: 06 02 1981              CUMULATIVE TIME STEP:     245
 MODFLOW STRESS PERIOD      2     CURRENT TIME STEP:     245     ITERATIONS:      12

 -----------------------------------------------------------------------------------

   CUMULATIVE VOLUMES               L**3   RATES FOR THIS TIME STEP           L**3/T
   ------------------                      ------------------------

                                     IN                                         IN
                                     --                                         --
        PRECIPITATION =        1.8318D+07          PRECIPITATION =          50867.39
           STREAMFLOW =                               STREAMFLOW =                  
     GW BOUNDARY FLOW =                         GW BOUNDARY FLOW =                  


                                    OUT                                        OUT
                                    ---                                        ---
   EVAPOTRANSPIRATION =        1.3099D+07     EVAPOTRANSPIRATION =          74389.18
           STREAMFLOW =        6064171.88             STREAMFLOW =           7318.04
     GW BOUNDARY FLOW =         159412.98       GW BOUNDARY FLOW =            647.38

   INFLOWS - OUTFLOWS =       -1004169.73     INFLOWS - OUTFLOWS =         -31487.22
             --------                                   --------

 TOTAL STORAGE CHANGE =        -998086.39         STORAGE CHANGE =         -31491.73
       --------------                             --------------
         LAND SURFACE =          73850.90           LAND SURFACE =          28868.68
            SOIL ZONE =         781533.74              SOIL ZONE =         -38789.27
     UNSATURATED ZONE =        -999430.58       UNSATURATED ZONE =         -12902.86
       SATURATED ZONE =        -854040.45         SATURATED ZONE =          -8668.28

 OVERALL BUDGET ERROR =          -6083.34           BUDGET ERROR =              4.51


  PERCENT DISCREPANCY =             -0.03    PERCENT DISCREPANCY =              0.01



1
 SUMMARY VOLUMETRIC BUDGET FOR GSFLOW 
 DATE: 06 09 1981              CUMULATIVE TIME STEP:     252
 MODFLOW STRESS PERIOD      2     CURRENT TIME STEP:     252     ITERATIONS:      15

 -----------------------------------------------------------------------------------

   CUMULATIVE VOLUMES               L**3   RATES FOR THIS TIME STEP           L**3/T
   ------------------                      ------------------------

                                     IN                                         IN
                                     --                                         --
        PRECIPITATION =        1.8318D+07          PRECIPITATION =                  
           STREAMFLOW =                               STREAMFLOW =                  
     GW BOUNDARY FLOW =                         GW BOUNDARY FLOW =                  


                                    OUT                                        OUT
                                    ---                                        ---
   EVAPOTRANSPIRATION =        1.3572D+07     EVAPOTRANSPIRATION =          51513.87
           STREAMFLOW =        6110066.46             STREAMFLOW =           6254.91
     GW BOUNDARY FLOW =         163942.86       GW BOUNDARY FLOW =            646.98

   INFLOWS - OUTFLOWS =       -1527837.93     INFLOWS - OUTFLOWS =         -58415.77
             --------                                   --------

 TOTAL STORAGE CHANGE =       -1521752.72         STORAGE CHANGE =         -58420.21
       --------------                             --------------
         LAND SURFACE =          12486.17           LAND SURFACE =          -2878.61
            SOIL ZONE =         473538.56              SOIL ZONE =         -33428.17
     UNSATURATED ZONE =       -1089466.68       UNSATURATED ZONE =         -12685.93
       SATURATED ZONE =        -918310.77         SATURATED ZONE =          -9427.50

 OVERALL BUDGET ERROR =          -6085.21           BUDGET ERROR =              4.45


  PERCENT DISCREPANCY =             -0.03    PERCENT DISCREPANCY =              0.01



1
 SUMMARY VOLUMETRIC BUDGET FOR GSFLOW 
 DATE: 06 16 1981              CUMULATIVE TIME STEP:     259
 MODFLOW STRESS PERIOD      2     CURRENT TIME STEP:     259     ITERATIONS:      13

 -----------------------------------------------------------------------------------

   CUMULATIVE VOLUMES               L**3   RATES FOR THIS TIME STEP           L**3/T
   ------------------                      ------------------------

                                     IN                                         IN
                                     --                                         --
        PRECIPITATION =        1.8318D+07          PRECIPITATION =                  
           STREAMFLOW =                               STREAMFLOW =                  
     GW BOUNDARY FLOW =                         GW BOUNDARY FLOW =                  


                                    OUT                                        OUT
                                    ---                                        ---
   EVAPOTRANSPIRATION =        1.3759D+07     EVAPOTRANSPIRATION =          42035.32
           STREAMFLOW =        6152863.60             STREAMFLOW =           6051.71
     GW BOUNDARY FLOW =         168470.92       GW BOUNDARY FLOW =            646.79

   INFLOWS - OUTFLOWS =       -1762581.94     INFLOWS - OUTFLOWS =         -48733.82
             --------                                   --------

 TOTAL STORAGE CHANGE =       -1756528.62         STORAGE CHANGE =         -48738.38
       --------------                             --------------
         LAND SURFACE =           5628.51           LAND SURFACE =          -1247.48
            SOIL ZONE =         399138.64              SOIL ZONE =         -25688.05
     UNSATURATED ZONE =       -1177359.56       UNSATURATED ZONE =         -12260.16
       SATURATED ZONE =        -983936.20         SATURATED ZONE =          -9542.68

 OVERALL BUDGET ERROR =          -6053.32           BUDGET ERROR =              4.56


  PERCENT DISCREPANCY =             -0.03    PERCENT DISCREPANCY =              0.01



1
 SUMMARY VOLUMETRIC BUDGET FOR GSFLOW 
 DATE: 06 23 1981              CUMULATIVE TIME STEP:     266
 MODFLOW STRESS PERIOD      2     CURRENT TIME STEP:     266     ITERATIONS:      10

 -----------------------------------------------------------------------------------

   CUMULATIVE VOLUMES               L**3   RATES FOR THIS TIME STEP           L**3/T
   ------------------                      ------------------------

                                     IN                                         IN
                                     --                                         --
        PRECIPITATION =        1.8318D+07          PRECIPITATION =                  
           STREAMFLOW =                               STREAMFLOW =                  
     GW BOUNDARY FLOW =                         GW BOUNDARY FLOW =                  


                                    OUT                                        OUT
                                    ---                                        ---
   EVAPOTRANSPIRATION =        1.4035D+07     EVAPOTRANSPIRATION =          32947.72
           STREAMFLOW =        6194683.21             STREAMFLOW =           5923.48
     GW BOUNDARY FLOW =         172999.00       GW BOUNDARY FLOW =            647.17

   INFLOWS - OUTFLOWS =       -2084704.91     INFLOWS - OUTFLOWS =         -39518.37
             --------                                   --------

 TOTAL STORAGE CHANGE =       -2078667.64         STORAGE CHANGE =         -39515.16
       --------------                             --------------
         LAND SURFACE =        9.6048D-10           LAND SURFACE =                  
            SOIL ZONE =         234105.58              SOIL ZONE =         -17998.38
     UNSATURATED ZONE =       -1259316.92       UNSATURATED ZONE =         -11306.45
       SATURATED ZONE =       -1053456.29         SATURATED ZONE =         -10210.33

 OVERALL BUDGET ERROR =          -6037.28           BUDGET ERROR =             -3.21


  PERCENT DISCREPANCY =             -0.03    PERCENT DISCREPANCY =             -0.01



1
 SUMMARY VOLUMETRIC BUDGET FOR GSFLOW 
 DATE: 06 30 1981              CUMULATIVE TIME STEP:     273
 MODFLOW STRESS PERIOD      2     CURRENT TIME STEP:     273     ITERATIONS:      12

 -----------------------------------------------------------------------------------

   CUMULATIVE VOLUMES               L**3   RATES FOR THIS TIME STEP           L**3/T
   ------------------                      ------------------------

                                     IN                                         IN
[...]
                                    ---                                        ---
   EVAPOTRANSPIRATION =        2.9255D+08     EVAPOTRANSPIRATION =          33804.74
           STREAMFLOW =        1.7742D+08             STREAMFLOW =           6841.67
     GW BOUNDARY FLOW =        3737784.32       GW BOUNDARY FLOW =            651.27

   INFLOWS - OUTFLOWS =       -8645260.33     INFLOWS - OUTFLOWS =         -41297.67
             --------                                   --------

 TOTAL STORAGE CHANGE =       -8577631.28         STORAGE CHANGE =         -41317.66
       --------------                             --------------
         LAND SURFACE =           3413.14           LAND SURFACE =           -684.22
            SOIL ZONE =         200275.35              SOIL ZONE =         -19549.50
     UNSATURATED ZONE =        5617899.94       UNSATURATED ZONE =         -27243.56
       SATURATED ZONE =       -1.4399D+07         SATURATED ZONE =           6159.62

 OVERALL BUDGET ERROR =         -67629.05           BUDGET ERROR =             19.99


  PERCENT DISCREPANCY =             -0.01    PERCENT DISCREPANCY =              0.05



1
 SUMMARY VOLUMETRIC BUDGET FOR GSFLOW 
 DATE: 07 30 1996              CUMULATIVE TIME STEP:    5782
 MODFLOW STRESS PERIOD      2     CURRENT TIME STEP:    5782     ITERATIONS:      14

 -----------------------------------------------------------------------------------

   CUMULATIVE VOLUMES               L**3   RATES FOR THIS TIME STEP           L**3/T
   ------------------                      ------------------------

                                     IN                                         IN
                                     --                                         --
        PRECIPITATION =        4.6511D+08          PRECIPITATION =                  
           STREAMFLOW =                               STREAMFLOW =                  
     GW BOUNDARY FLOW =                         GW BOUNDARY FLOW =                  


                                    OUT                                        OUT
                                    ---                                        ---
   EVAPOTRANSPIRATION =        2.9276D+08     EVAPOTRANSPIRATION =          21979.29
           STREAMFLOW =        1.7746D+08             STREAMFLOW =           6690.10
     GW BOUNDARY FLOW =        3742341.33       GW BOUNDARY FLOW =            650.79

   INFLOWS - OUTFLOWS =       -8858464.77     INFLOWS - OUTFLOWS =         -29320.17
             --------                                   --------

 TOTAL STORAGE CHANGE =       -8790998.20         STORAGE CHANGE =         -29345.03
       --------------                             --------------
         LAND SURFACE =            303.78           LAND SURFACE =           -298.54
            SOIL ZONE =         136286.73              SOIL ZONE =          -8279.20
     UNSATURATED ZONE =        5432714.15       UNSATURATED ZONE =         -26159.86
       SATURATED ZONE =       -1.4360D+07         SATURATED ZONE =           5392.56

 OVERALL BUDGET ERROR =         -67466.58           BUDGET ERROR =             24.86


  PERCENT DISCREPANCY =             -0.01    PERCENT DISCREPANCY =              0.08



1
 SUMMARY VOLUMETRIC BUDGET FOR GSFLOW 
 DATE: 08 06 1996              CUMULATIVE TIME STEP:    5789
 MODFLOW STRESS PERIOD      2     CURRENT TIME STEP:    5789     ITERATIONS:      15

 -----------------------------------------------------------------------------------

   CUMULATIVE VOLUMES               L**3   RATES FOR THIS TIME STEP           L**3/T
   ------------------                      ------------------------

                                     IN                                         IN
                                     --                                         --
        PRECIPITATION =        4.6511D+08          PRECIPITATION =                  
           STREAMFLOW =                               STREAMFLOW =                  
     GW BOUNDARY FLOW =                         GW BOUNDARY FLOW =                  


                                    OUT                                        OUT
                                    ---                                        ---
   EVAPOTRANSPIRATION =        2.9288D+08     EVAPOTRANSPIRATION =          15008.13
           STREAMFLOW =        1.7751D+08             STREAMFLOW =           6497.65
     GW BOUNDARY FLOW =        3746895.30       GW BOUNDARY FLOW =            650.49

   INFLOWS - OUTFLOWS =       -9026764.83     INFLOWS - OUTFLOWS =         -22156.27
             --------                                   --------

 TOTAL STORAGE CHANGE =       -8959433.92         STORAGE CHANGE =         -22169.40
       --------------                             --------------
         LAND SURFACE =       -7.2236D-09           LAND SURFACE =                  
            SOIL ZONE =         112308.73              SOIL ZONE =          -1706.37
     UNSATURATED ZONE =        5255951.21       UNSATURATED ZONE =         -24773.30
       SATURATED ZONE =       -1.4328D+07         SATURATED ZONE =           4310.27

 OVERALL BUDGET ERROR =         -67330.91           BUDGET ERROR =             13.13


  PERCENT DISCREPANCY =             -0.01    PERCENT DISCREPANCY =              0.06



1
 SUMMARY VOLUMETRIC BUDGET FOR GSFLOW 
 DATE: 08 13 1996              CUMULATIVE TIME STEP:    5796
 MODFLOW STRESS PERIOD      2     CURRENT TIME STEP:    5796     ITERATIONS:      15

 -----------------------------------------------------------------------------------

   CUMULATIVE VOLUMES               L**3   RATES FOR THIS TIME STEP           L**3/T
   ------------------                      ------------------------

                                     IN                                         IN
                                     --                                         --
        PRECIPITATION =        4.6531D+08          PRECIPITATION =          54456.73
           STREAMFLOW =                               STREAMFLOW =                  
     GW BOUNDARY FLOW =                         GW BOUNDARY FLOW =                  


                                    OUT                                        OUT
                                    ---                                        ---
   EVAPOTRANSPIRATION =        2.9303D+08     EVAPOTRANSPIRATION =          29485.16
           STREAMFLOW =        1.7756D+08             STREAMFLOW =           7676.90
     GW BOUNDARY FLOW =        3751448.40       GW BOUNDARY FLOW =            650.47

   INFLOWS - OUTFLOWS =       -9030023.95     INFLOWS - OUTFLOWS =          16644.19
             --------                                   --------

 TOTAL STORAGE CHANGE =       -8962820.31         STORAGE CHANGE =          16622.69
       --------------                             --------------
         LAND SURFACE =          34505.06           LAND SURFACE =                  
            SOIL ZONE =         216196.93              SOIL ZONE =          36687.83
     UNSATURATED ZONE =        5084459.37       UNSATURATED ZONE =         -24421.29
       SATURATED ZONE =       -1.4298D+07         SATURATED ZONE =           4356.15

 OVERALL BUDGET ERROR =         -67203.64           BUDGET ERROR =             21.49


  PERCENT DISCREPANCY =             -0.01    PERCENT DISCREPANCY =              0.04



1
 SUMMARY VOLUMETRIC BUDGET FOR GSFLOW 
 DATE: 08 20 1996              CUMULATIVE TIME STEP:    5803
 MODFLOW STRESS PERIOD      2     CURRENT TIME STEP:    5803     ITERATIONS:      14

 -----------------------------------------------------------------------------------

   CUMULATIVE VOLUMES               L**3   RATES FOR THIS TIME STEP           L**3/T
   ------------------                      ------------------------

                                     IN                                         IN
                                     --                                         --
        PRECIPITATION =        4.6531D+08          PRECIPITATION =                  
           STREAMFLOW =                               STREAMFLOW =                  
     GW BOUNDARY FLOW =                         GW BOUNDARY FLOW =                  


                                    OUT                                        OUT
                                    ---                                        ---
   EVAPOTRANSPIRATION =        2.9322D+08     EVAPOTRANSPIRATION =          16666.06
           STREAMFLOW =        1.7760D+08             STREAMFLOW =           6303.59
     GW BOUNDARY FLOW =        3756000.14       GW BOUNDARY FLOW =            650.09

   INFLOWS - OUTFLOWS =       -9266453.95     INFLOWS - OUTFLOWS =         -23619.74
             --------                                   --------

 TOTAL STORAGE CHANGE =       -9199384.81         STORAGE CHANGE =         -23646.69
       --------------                             --------------
         LAND SURFACE =       -7.2250D-09           LAND SURFACE =                  
            SOIL ZONE =         154468.31              SOIL ZONE =          -3697.19
     UNSATURATED ZONE =        4919203.11       UNSATURATED ZONE =         -23010.80
       SATURATED ZONE =       -1.4273D+07         SATURATED ZONE =           3061.30

 OVERALL BUDGET ERROR =         -67069.15           BUDGET ERROR =             26.95


  PERCENT DISCREPANCY =             -0.01    PERCENT DISCREPANCY =              0.11



1
 SUMMARY VOLUMETRIC BUDGET FOR GSFLOW 
 DATE: 08 27 1996              CUMULATIVE TIME STEP:    5810
 MODFLOW STRESS PERIOD      2     CURRENT TIME STEP:    5810     ITERATIONS:      14

 -----------------------------------------------------------------------------------

   CUMULATIVE VOLUMES               L**3   RATES FOR THIS TIME STEP           L**3/T
   ------------------                      ------------------------

                                     IN                                         IN
                                     --                                         --
        PRECIPITATION =        4.6531D+08          PRECIPITATION =                  
           STREAMFLOW =                               STREAMFLOW =                  
     GW BOUNDARY FLOW =                         GW BOUNDARY FLOW =                  


                                    OUT                                        OUT
                                    ---                                        ---
   EVAPOTRANSPIRATION =        2.9335D+08     EVAPOTRANSPIRATION =          14660.87
           STREAMFLOW =        1.7765D+08             STREAMFLOW =           6154.87
     GW BOUNDARY FLOW =        3760549.31       GW BOUNDARY FLOW =            649.74

   INFLOWS - OUTFLOWS =       -9443446.57     INFLOWS - OUTFLOWS =         -21465.47
             --------                                   --------

 TOTAL STORAGE CHANGE =       -9376497.39         STORAGE CHANGE =         -21485.80
       --------------                             --------------
         LAND SURFACE =       -7.2250D-09           LAND SURFACE =                  
            SOIL ZONE =         115971.71              SOIL ZONE =          -1780.47
     UNSATURATED ZONE =        4764628.04       UNSATURATED ZONE =         -21518.20
       SATURATED ZONE =       -1.4257D+07         SATURATED ZONE =           1812.87

 OVERALL BUDGET ERROR =         -66949.19           BUDGET ERROR =             20.33


  PERCENT DISCREPANCY =             -0.01    PERCENT DISCREPANCY =              0.09



1
 SUMMARY VOLUMETRIC BUDGET FOR GSFLOW 
 DATE: 09 03 1996              CUMULATIVE TIME STEP:    5817
 MODFLOW STRESS PERIOD      2     CURRENT TIME STEP:    5817     ITERATIONS:      14

 -----------------------------------------------------------------------------------

   CUMULATIVE VOLUMES               L**3   RATES FOR THIS TIME STEP           L**3/T
   ------------------                      ------------------------

                                     IN                                         IN
                                     --                                         --
        PRECIPITATION =        4.6531D+08          PRECIPITATION =                  
           STREAMFLOW =                               STREAMFLOW =                  
     GW BOUNDARY FLOW =                         GW BOUNDARY FLOW =                  


                                    OUT                                        OUT
                                    ---                                        ---
   EVAPOTRANSPIRATION =        2.9345D+08     EVAPOTRANSPIRATION =          12308.71
           STREAMFLOW =        1.7769D+08             STREAMFLOW =           6054.31
     GW BOUNDARY FLOW =        3765095.99       GW BOUNDARY FLOW =            649.38

   INFLOWS - OUTFLOWS =       -9590595.32     INFLOWS - OUTFLOWS =         -19012.40
             --------                                   --------

 TOTAL STORAGE CHANGE =       -9523773.84         STORAGE CHANGE =         -19033.59
       --------------                             --------------
         LAND SURFACE =       -7.2250D-09           LAND SURFACE =                  
            SOIL ZONE =         105707.82              SOIL ZONE =            445.96
     UNSATURATED ZONE =        4616139.52       UNSATURATED ZONE =         -21048.84
       SATURATED ZONE =       -1.4246D+07         SATURATED ZONE =           1569.29

 OVERALL BUDGET ERROR =         -66821.48           BUDGET ERROR =             21.19


  PERCENT DISCREPANCY =             -0.01    PERCENT DISCREPANCY =              0.11



1
 SUMMARY VOLUMETRIC BUDGET FOR GSFLOW 
 DATE: 09 10 1996              CUMULATIVE TIME STEP:    5824
 MODFLOW STRESS PERIOD      2     CURRENT TIME STEP:    5824     ITERATIONS:      13

 -----------------------------------------------------------------------------------

   CUMULATIVE VOLUMES               L**3   RATES FOR THIS TIME STEP           L**3/T
   ------------------                      ------------------------

                                     IN                                         IN
                                     --                                         --
        PRECIPITATION =        4.6531D+08          PRECIPITATION =                  
           STREAMFLOW =                               STREAMFLOW =                  
     GW BOUNDARY FLOW =                         GW BOUNDARY FLOW =                  


                                    OUT                                        OUT
                                    ---                                        ---
   EVAPOTRANSPIRATION =        2.9353D+08     EVAPOTRANSPIRATION =          13339.27
           STREAMFLOW =        1.7773D+08             STREAMFLOW =           5961.03
     GW BOUNDARY FLOW =        3769640.35       GW BOUNDARY FLOW =            649.05

   INFLOWS - OUTFLOWS =       -9719512.91     INFLOWS - OUTFLOWS =         -19949.36
             --------                                   --------

 TOTAL STORAGE CHANGE =       -9652867.64         STORAGE CHANGE =         -19979.15
       --------------                             --------------
         LAND SURFACE =       -7.2250D-09           LAND SURFACE =                  
            SOIL ZONE =         112123.74              SOIL ZONE =           -707.41
     UNSATURATED ZONE =        4473209.78       UNSATURATED ZONE =         -20038.61
       SATURATED ZONE =       -1.4238D+07         SATURATED ZONE =            766.87

 OVERALL BUDGET ERROR =         -66645.27           BUDGET ERROR =             29.80


  PERCENT DISCREPANCY =             -0.01    PERCENT DISCREPANCY =              0.15



1
 SUMMARY VOLUMETRIC BUDGET FOR GSFLOW 
 DATE: 09 17 1996              CUMULATIVE TIME STEP:    5831
 MODFLOW STRESS PERIOD      2     CURRENT TIME STEP:    5831     ITERATIONS:      12

 -----------------------------------------------------------------------------------

   CUMULATIVE VOLUMES               L**3   RATES FOR THIS TIME STEP           L**3/T
   ------------------                      ------------------------

                                     IN                                         IN
                                     --                                         --
        PRECIPITATION =        4.6637D+08          PRECIPITATION =                  
           STREAMFLOW =                               STREAMFLOW =                  
     GW BOUNDARY FLOW =                         GW BOUNDARY FLOW =                  


                                    OUT                                        OUT
                                    ---                                        ---
   EVAPOTRANSPIRATION =        2.9373D+08     EVAPOTRANSPIRATION =          74571.48
           STREAMFLOW =        1.7780D+08             STREAMFLOW =           9781.77
     GW BOUNDARY FLOW =        3774184.29       GW BOUNDARY FLOW =            649.46

   INFLOWS - OUTFLOWS =       -8932385.53     INFLOWS - OUTFLOWS =         -85002.72
             --------                                   --------

 TOTAL STORAGE CHANGE =       -8865926.31         STORAGE CHANGE =         -85039.64
       --------------                             --------------
         LAND SURFACE =       -7.2250D-09           LAND SURFACE =         -34505.06
            SOIL ZONE =        1030926.25              SOIL ZONE =         -31445.55
     UNSATURATED ZONE =        4333737.93       UNSATURATED ZONE =         -19746.48
       SATURATED ZONE =       -1.4231D+07         SATURATED ZONE =            657.45

 OVERALL BUDGET ERROR =         -66459.22           BUDGET ERROR =             36.92


  PERCENT DISCREPANCY =             -0.01    PERCENT DISCREPANCY =              0.04



1
 SUMMARY VOLUMETRIC BUDGET FOR GSFLOW 
 DATE: 09 24 1996              CUMULATIVE TIME STEP:    5838
 MODFLOW STRESS PERIOD      2     CURRENT TIME STEP:    5838     ITERATIONS:      13

 -----------------------------------------------------------------------------------

   CUMULATIVE VOLUMES               L**3   RATES FOR THIS TIME STEP           L**3/T
   ------------------                      ------------------------

                                     IN                                         IN
                                     --                                         --
        PRECIPITATION =        4.6637D+08          PRECIPITATION =                  
           STREAMFLOW =                               STREAMFLOW =                  
     GW BOUNDARY FLOW =                         GW BOUNDARY FLOW =                  


                                    OUT                                        OUT
                                    ---                                        ---
   EVAPOTRANSPIRATION =        2.9427D+08     EVAPOTRANSPIRATION =          51668.15
           STREAMFLOW =        1.7784D+08             STREAMFLOW =           6090.64
     GW BOUNDARY FLOW =        3778726.51       GW BOUNDARY FLOW =            648.56

   INFLOWS - OUTFLOWS =       -9521693.56     INFLOWS - OUTFLOWS =         -58407.35
             --------                                   --------

 TOTAL STORAGE CHANGE =       -9455432.56         STORAGE CHANGE =         -58434.55
       --------------                             --------------
         LAND SURFACE =       -7.2250D-09           LAND SURFACE =                  
            SOIL ZONE =         574402.41              SOIL ZONE =         -39537.55
     UNSATURATED ZONE =        4198070.67       UNSATURATED ZONE =         -19090.18
       SATURATED ZONE =       -1.4228D+07         SATURATED ZONE =            193.17

 OVERALL BUDGET ERROR =         -66260.99           BUDGET ERROR =             27.21


  PERCENT DISCREPANCY =             -0.01    PERCENT DISCREPANCY =              0.05



