1
 SUMMARY VOLUMETRIC BUDGET FOR GSFLOW 
 DATE: 10 07 1980              CUMULATIVE TIME STEP:       7
 MODFLOW STRESS PERIOD      2     CURRENT TIME STEP:       7     ITERATIONS:       4

 -----------------------------------------------------------------------------------

   CUMULATIVE VOLUMES               L**3   RATES FOR THIS TIME STEP           L**3/T
   ------------------                      ------------------------

                                     IN                                         IN
                                     --                                         --
        PRECIPITATION =                            PRECIPITATION =                  
           STREAMFLOW =                               STREAMFLOW =                  
     GW BOUNDARY FLOW =                         GW BOUNDARY FLOW =                  


                                    OUT                                        OUT
                                    ---                                        ---
   EVAPOTRANSPIRATION =          66584.71     EVAPOTRANSPIRATION =           9273.06
           STREAMFLOW =          43081.74             STREAMFLOW =           6083.37
     GW BOUNDARY FLOW =           5067.91       GW BOUNDARY FLOW =            723.90

   INFLOWS - OUTFLOWS =        -114734.35     INFLOWS - OUTFLOWS =         -16080.33
             --------                                   --------

 TOTAL STORAGE CHANGE =        -114495.73         STORAGE CHANGE =         -16045.38
       --------------                             --------------
         LAND SURFACE =                             LAND SURFACE =                  
            SOIL ZONE =          43860.69              SOIL ZONE =           6413.58
     UNSATURATED ZONE =        -144981.47       UNSATURATED ZONE =         -20388.09
       SATURATED ZONE =         -13374.96         SATURATED ZONE =          -2070.86

 OVERALL BUDGET ERROR =           -238.62           BUDGET ERROR =            -34.95


  PERCENT DISCREPANCY =             -0.21    PERCENT DISCREPANCY =             -0.22



1
 SUMMARY VOLUMETRIC BUDGET FOR GSFLOW 
 DATE: 10 14 1980              CUMULATIVE TIME STEP:      14
 MODFLOW STRESS PERIOD      2     CURRENT TIME STEP:      14     ITERATIONS:       4

 -----------------------------------------------------------------------------------

   CUMULATIVE VOLUMES               L**3   RATES FOR THIS TIME STEP           L**3/T
   ------------------                      ------------------------

                                     IN                                         IN
                                     --                                         --
        PRECIPITATION =         650779.83          PRECIPITATION =         164754.40
           STREAMFLOW =                               STREAMFLOW =                  
     GW BOUNDARY FLOW =                         GW BOUNDARY FLOW =                  


                                    OUT                                        OUT
                                    ---                                        ---
   EVAPOTRANSPIRATION =         162737.80     EVAPOTRANSPIRATION =          11475.93
           STREAMFLOW =          94342.01             STREAMFLOW =           7629.74
     GW BOUNDARY FLOW =          10135.82       GW BOUNDARY FLOW =            724.16

   INFLOWS - OUTFLOWS =         383564.21     INFLOWS - OUTFLOWS =         144924.57
             --------                                   --------

 TOTAL STORAGE CHANGE =         384060.28         STORAGE CHANGE =         144964.50
       --------------                             --------------
         LAND SURFACE =         183651.29           LAND SURFACE =         130477.11
            SOIL ZONE =         513810.17              SOIL ZONE =          36592.55
     UNSATURATED ZONE =        -284739.08       UNSATURATED ZONE =         -19611.62
       SATURATED ZONE =         -28662.11         SATURATED ZONE =          -2493.55

 OVERALL BUDGET ERROR =           -496.07           BUDGET ERROR =            -39.93


  PERCENT DISCREPANCY =             -0.08    PERCENT DISCREPANCY =             -0.02



1
 SUMMARY VOLUMETRIC BUDGET FOR GSFLOW 
 DATE: 10 21 1980              CUMULATIVE TIME STEP:      21
 MODFLOW STRESS PERIOD      2     CURRENT TIME STEP:      21     ITERATIONS:       5

 -----------------------------------------------------------------------------------

   CUMULATIVE VOLUMES               L**3   RATES FOR THIS TIME STEP           L**3/T
   ------------------                      ------------------------

                                     IN                                         IN
                                     --                                         --
        PRECIPITATION =         733157.03          PRECIPITATION =                  
           STREAMFLOW =                               STREAMFLOW =                  
     GW BOUNDARY FLOW =                         GW BOUNDARY FLOW =                  


                                    OUT                                        OUT
                                    ---                                        ---
   EVAPOTRANSPIRATION =         433114.12     EVAPOTRANSPIRATION =          44099.81
           STREAMFLOW =         144387.61             STREAMFLOW =           6656.00
     GW BOUNDARY FLOW =          15203.78       GW BOUNDARY FLOW =            723.87

   INFLOWS - OUTFLOWS =         140451.52     INFLOWS - OUTFLOWS =         -51479.67
             --------                                   --------

 TOTAL STORAGE CHANGE =         141198.08         STORAGE CHANGE =         -51447.20
       --------------                             --------------
         LAND SURFACE =        2.3874D-12           LAND SURFACE =                  
            SOIL ZONE =         608355.29              SOIL ZONE =         -29473.43
     UNSATURATED ZONE =        -418661.12       UNSATURATED ZONE =         -18773.61
       SATURATED ZONE =         -48496.10         SATURATED ZONE =          -3200.16

 OVERALL BUDGET ERROR =           -746.56           BUDGET ERROR =            -32.47


  PERCENT DISCREPANCY =             -0.10    PERCENT DISCREPANCY =             -0.06



1
 SUMMARY VOLUMETRIC BUDGET FOR GSFLOW 
 DATE: 10 28 1980              CUMULATIVE TIME STEP:      28
 MODFLOW STRESS PERIOD      2     CURRENT TIME STEP:      28     ITERATIONS:       5

 -----------------------------------------------------------------------------------

   CUMULATIVE VOLUMES               L**3   RATES FOR THIS TIME STEP           L**3/T
   ------------------                      ------------------------

                                     IN                                         IN
                                     --                                         --
        PRECIPITATION =        1070903.53          PRECIPITATION =                  
           STREAMFLOW =                               STREAMFLOW =                  
     GW BOUNDARY FLOW =                         GW BOUNDARY FLOW =                  


                                    OUT                                        OUT
                                    ---                                        ---
   EVAPOTRANSPIRATION =         622781.24     EVAPOTRANSPIRATION =          24687.16
           STREAMFLOW =         196908.66             STREAMFLOW =           7747.27
     GW BOUNDARY FLOW =          20270.96       GW BOUNDARY FLOW =            723.96

   INFLOWS - OUTFLOWS =         230942.66     INFLOWS - OUTFLOWS =         -33158.39
             --------                                   --------

 TOTAL STORAGE CHANGE =         231921.72         STORAGE CHANGE =         -33126.43
       --------------                             --------------
         LAND SURFACE =          20524.24           LAND SURFACE =         -29854.69
            SOIL ZONE =         830554.84              SOIL ZONE =          18340.62
     UNSATURATED ZONE =        -546824.84       UNSATURATED ZONE =         -17935.54
       SATURATED ZONE =         -72332.51         SATURATED ZONE =          -3676.81

 OVERALL BUDGET ERROR =           -979.06           BUDGET ERROR =            -31.97


  PERCENT DISCREPANCY =             -0.09    PERCENT DISCREPANCY =             -0.10



1
 SUMMARY VOLUMETRIC BUDGET FOR GSFLOW 
 DATE: 11 04 1980              CUMULATIVE TIME STEP:      35
 MODFLOW STRESS PERIOD      2     CURRENT TIME STEP:      35     ITERATIONS:       6

 -----------------------------------------------------------------------------------

   CUMULATIVE VOLUMES               L**3   RATES FOR THIS TIME STEP           L**3/T
   ------------------                      ------------------------

                                     IN                                         IN
                                     --                                         --
        PRECIPITATION =        1070903.53          PRECIPITATION =                  
           STREAMFLOW =                               STREAMFLOW =                  
     GW BOUNDARY FLOW =                         GW BOUNDARY FLOW =                  


                                    OUT                                        OUT
                                    ---                                        ---
   EVAPOTRANSPIRATION =         961330.85     EVAPOTRANSPIRATION =          44292.10
           STREAMFLOW =         246362.34             STREAMFLOW =           6502.41
     GW BOUNDARY FLOW =          25337.67       GW BOUNDARY FLOW =            723.70

   INFLOWS - OUTFLOWS =        -162127.33     INFLOWS - OUTFLOWS =         -51518.20
             --------                                   --------

 TOTAL STORAGE CHANGE =        -160933.99         STORAGE CHANGE =         -51488.22
       --------------                             --------------
         LAND SURFACE =       -7.8018D-12           LAND SURFACE =                  
            SOIL ZONE =         609949.06              SOIL ZONE =         -29828.22
     UNSATURATED ZONE =        -669820.90       UNSATURATED ZONE =         -17302.23
       SATURATED ZONE =        -101062.16         SATURATED ZONE =          -4357.77

 OVERALL BUDGET ERROR =          -1193.34           BUDGET ERROR =            -29.99


  PERCENT DISCREPANCY =             -0.10    PERCENT DISCREPANCY =             -0.06



1
 SUMMARY VOLUMETRIC BUDGET FOR GSFLOW 
 DATE: 11 11 1980              CUMULATIVE TIME STEP:      42
 MODFLOW STRESS PERIOD      2     CURRENT TIME STEP:      42     ITERATIONS:       5

 -----------------------------------------------------------------------------------

   CUMULATIVE VOLUMES               L**3   RATES FOR THIS TIME STEP           L**3/T
   ------------------                      ------------------------

                                     IN                                         IN
                                     --                                         --
        PRECIPITATION =        1573762.54          PRECIPITATION =         255182.19
           STREAMFLOW =                               STREAMFLOW =                  
     GW BOUNDARY FLOW =                         GW BOUNDARY FLOW =                  


                                    OUT                                        OUT
                                    ---                                        ---
   EVAPOTRANSPIRATION =        1194292.08     EVAPOTRANSPIRATION =          17114.36
           STREAMFLOW =         300118.41             STREAMFLOW =          10658.39
     GW BOUNDARY FLOW =          30404.02       GW BOUNDARY FLOW =            724.02

   INFLOWS - OUTFLOWS =          48948.03     INFLOWS - OUTFLOWS =         226685.42
             --------                                   --------

 TOTAL STORAGE CHANGE =          50367.29         STORAGE CHANGE =         226717.15
       --------------                             --------------
         LAND SURFACE =          76836.68           LAND SURFACE =          76836.68
            SOIL ZONE =         893280.53              SOIL ZONE =         170296.82
     UNSATURATED ZONE =        -787763.88       UNSATURATED ZONE =         -16369.01
       SATURATED ZONE =        -131986.05         SATURATED ZONE =          -4047.34

 OVERALL BUDGET ERROR =          -1419.26           BUDGET ERROR =            -31.73


  PERCENT DISCREPANCY =             -0.09    PERCENT DISCREPANCY =             -0.01



1
 SUMMARY VOLUMETRIC BUDGET FOR GSFLOW 
 DATE: 11 18 1980              CUMULATIVE TIME STEP:      49
 MODFLOW STRESS PERIOD      2     CURRENT TIME STEP:      49     ITERATIONS:       5

 -----------------------------------------------------------------------------------

   CUMULATIVE VOLUMES               L**3   RATES FOR THIS TIME STEP           L**3/T
   ------------------                      ------------------------

                                     IN                                         IN
                                     --                                         --
        PRECIPITATION =        1573762.54          PRECIPITATION =                  
           STREAMFLOW =                               STREAMFLOW =                  
     GW BOUNDARY FLOW =                         GW BOUNDARY FLOW =                  


                                    OUT                                        OUT
                                    ---                                        ---
   EVAPOTRANSPIRATION =        1291092.37     EVAPOTRANSPIRATION =          23211.27
           STREAMFLOW =         362568.53             STREAMFLOW =           9117.94
     GW BOUNDARY FLOW =          35472.43       GW BOUNDARY FLOW =            724.09

   INFLOWS - OUTFLOWS =        -115370.78     INFLOWS - OUTFLOWS =         -33053.30
             --------                                   --------

 TOTAL STORAGE CHANGE =        -113755.65         STORAGE CHANGE =         -33027.39
       --------------                             --------------
         LAND SURFACE =           5214.84           LAND SURFACE =          -7686.43
            SOIL ZONE =         947759.67              SOIL ZONE =          -4416.76
     UNSATURATED ZONE =        -901046.77       UNSATURATED ZONE =         -15950.39
       SATURATED ZONE =        -165683.40         SATURATED ZONE =          -4973.80

 OVERALL BUDGET ERROR =          -1615.13           BUDGET ERROR =            -25.91


  PERCENT DISCREPANCY =             -0.10    PERCENT DISCREPANCY =             -0.08



1
 SUMMARY VOLUMETRIC BUDGET FOR GSFLOW 
 DATE: 11 25 1980              CUMULATIVE TIME STEP:      56
 MODFLOW STRESS PERIOD      2     CURRENT TIME STEP:      56     ITERATIONS:       7

 -----------------------------------------------------------------------------------

   CUMULATIVE VOLUMES               L**3   RATES FOR THIS TIME STEP           L**3/T
   ------------------                      ------------------------

                                     IN                                         IN
                                     --                                         --
        PRECIPITATION =        1648816.13          PRECIPITATION =                  
           STREAMFLOW =                               STREAMFLOW =                  
     GW BOUNDARY FLOW =                         GW BOUNDARY FLOW =                  


                                    OUT                                        OUT
                                    ---                                        ---
   EVAPOTRANSPIRATION =        1380738.19     EVAPOTRANSPIRATION =           9277.87
           STREAMFLOW =         425150.83             STREAMFLOW =           9103.57
     GW BOUNDARY FLOW =          40540.90       GW BOUNDARY FLOW =            724.07

   INFLOWS - OUTFLOWS =        -197613.79     INFLOWS - OUTFLOWS =         -19105.51
             --------                                   --------

 TOTAL STORAGE CHANGE =        -195821.29         STORAGE CHANGE =         -19081.24
       --------------                             --------------
         LAND SURFACE =          53014.08           LAND SURFACE =          -9258.02
            SOIL ZONE =         964696.97              SOIL ZONE =          11099.36
     UNSATURATED ZONE =       -1010236.17       UNSATURATED ZONE =         -15326.93
       SATURATED ZONE =        -203296.18         SATURATED ZONE =          -5595.65

 OVERALL BUDGET ERROR =          -1792.50           BUDGET ERROR =            -24.26


  PERCENT DISCREPANCY =             -0.10    PERCENT DISCREPANCY =             -0.13



1
 SUMMARY VOLUMETRIC BUDGET FOR GSFLOW 
 DATE: 12 02 1980              CUMULATIVE TIME STEP:      63
 MODFLOW STRESS PERIOD      2     CURRENT TIME STEP:      63     ITERATIONS:       5

 -----------------------------------------------------------------------------------

   CUMULATIVE VOLUMES               L**3   RATES FOR THIS TIME STEP           L**3/T
   ------------------                      ------------------------

                                     IN                                         IN
                                     --                                         --
        PRECIPITATION =        2076621.55          PRECIPITATION =                  
           STREAMFLOW =                               STREAMFLOW =                  
     GW BOUNDARY FLOW =                         GW BOUNDARY FLOW =                  


                                    OUT                                        OUT
                                    ---                                        ---
   EVAPOTRANSPIRATION =        1590693.38     EVAPOTRANSPIRATION =          35191.26
           STREAMFLOW =         499216.48             STREAMFLOW =          12913.22
     GW BOUNDARY FLOW =          45610.59       GW BOUNDARY FLOW =            724.55

   INFLOWS - OUTFLOWS =         -58898.89     INFLOWS - OUTFLOWS =         -48829.03
             --------                                   --------

 TOTAL STORAGE CHANGE =         -56932.58         STORAGE CHANGE =         -48804.34
       --------------                             --------------
         LAND SURFACE =         139391.41           LAND SURFACE =         -82011.29
            SOIL ZONE =        1158149.59              SOIL ZONE =          51719.60
     UNSATURATED ZONE =       -1112451.03       UNSATURATED ZONE =         -13435.67
       SATURATED ZONE =        -242022.54         SATURATED ZONE =          -5076.99

 OVERALL BUDGET ERROR =          -1966.31           BUDGET ERROR =            -24.69


  PERCENT DISCREPANCY =             -0.09    PERCENT DISCREPANCY =             -0.05



1
 SUMMARY VOLUMETRIC BUDGET FOR GSFLOW 
 DATE: 12 09 1980              CUMULATIVE TIME STEP:      70
 MODFLOW STRESS PERIOD      2     CURRENT TIME STEP:      70     ITERATIONS:       5

 -----------------------------------------------------------------------------------

   CUMULATIVE VOLUMES               L**3   RATES FOR THIS TIME STEP           L**3/T
   ------------------                      ------------------------

                                     IN                                         IN
                                     --                                         --
        PRECIPITATION =        4284363.63          PRECIPITATION =                  
           STREAMFLOW =                               STREAMFLOW =                  
     GW BOUNDARY FLOW =                         GW BOUNDARY FLOW =                  


                                    OUT                                        OUT
                                    ---                                        ---
   EVAPOTRANSPIRATION =        1617255.33     EVAPOTRANSPIRATION =           4181.54
           STREAMFLOW =         584126.14             STREAMFLOW =          12587.20
     GW BOUNDARY FLOW =          50683.20       GW BOUNDARY FLOW =            724.82

   INFLOWS - OUTFLOWS =        2032298.96     INFLOWS - OUTFLOWS =         -17493.55
             --------                                   --------

 TOTAL STORAGE CHANGE =        2034437.86         STORAGE CHANGE =         -17469.54
       --------------                             --------------
         LAND SURFACE =        2318907.17           LAND SURFACE =          -4181.54
            SOIL ZONE =        1209289.69              SOIL ZONE =           6945.90
     UNSATURATED ZONE =       -1211094.74       UNSATURATED ZONE =         -14180.67
       SATURATED ZONE =        -282664.26         SATURATED ZONE =          -6053.23

 OVERALL BUDGET ERROR =          -2138.90           BUDGET ERROR =            -24.01


  PERCENT DISCREPANCY =             -0.05    PERCENT DISCREPANCY =             -0.14



1
 SUMMARY VOLUMETRIC BUDGET FOR GSFLOW 
 DATE: 12 16 1980              CUMULATIVE TIME STEP:      77
 MODFLOW STRESS PERIOD      2     CURRENT TIME STEP:      77     ITERATIONS:       6

 -----------------------------------------------------------------------------------

   CUMULATIVE VOLUMES               L**3   RATES FOR THIS TIME STEP           L**3/T
   ------------------                      ------------------------

                                     IN                                         IN
                                     --                                         --
        PRECIPITATION =        4284363.63          PRECIPITATION =                  
           STREAMFLOW =                               STREAMFLOW =                  
     GW BOUNDARY FLOW =                         GW BOUNDARY FLOW =                  


                                    OUT                                        OUT
                                    ---                                        ---
   EVAPOTRANSPIRATION =        1768692.16     EVAPOTRANSPIRATION =          35300.31
           STREAMFLOW =         691199.32             STREAMFLOW =          23062.98
     GW BOUNDARY FLOW =          55758.46       GW BOUNDARY FLOW =            725.65

   INFLOWS - OUTFLOWS =        1768713.69     INFLOWS - OUTFLOWS =         -59088.93
             --------                                   --------

 TOTAL STORAGE CHANGE =        1771005.11         STORAGE CHANGE =         -59067.14
       --------------                             --------------
         LAND SURFACE =        1969972.18           LAND SURFACE =        -143770.84
            SOIL ZONE =        1426033.67              SOIL ZONE =          98603.91
     UNSATURATED ZONE =       -1301081.12       UNSATURATED ZONE =          -9296.95
       SATURATED ZONE =        -323919.62         SATURATED ZONE =          -4603.26

 OVERALL BUDGET ERROR =          -2291.42           BUDGET ERROR =            -21.79


  PERCENT DISCREPANCY =             -0.05    PERCENT DISCREPANCY =             -0.04



1
 SUMMARY VOLUMETRIC BUDGET FOR GSFLOW 
 DATE: 12 23 1980              CUMULATIVE TIME STEP:      84
 MODFLOW STRESS PERIOD      2     CURRENT TIME STEP:      84     ITERATIONS:       7

 -----------------------------------------------------------------------------------

   CUMULATIVE VOLUMES               L**3   RATES FOR THIS TIME STEP           L**3/T
   ------------------                      ------------------------

                                     IN                                         IN
                                     --                                         --
        PRECIPITATION =        4516757.54          PRECIPITATION =                  
           STREAMFLOW =                               STREAMFLOW =                  
     GW BOUNDARY FLOW =                         GW BOUNDARY FLOW =                  


                                    OUT                                        OUT
                                    ---                                        ---
   EVAPOTRANSPIRATION =        1976500.72     EVAPOTRANSPIRATION =          34832.01
           STREAMFLOW =         920826.01             STREAMFLOW =          31724.67
     GW BOUNDARY FLOW =          60850.57       GW BOUNDARY FLOW =            728.24

   INFLOWS - OUTFLOWS =        1558580.24     INFLOWS - OUTFLOWS =         -67284.92
             --------                                   --------

 TOTAL STORAGE CHANGE =        1560995.57         STORAGE CHANGE =         -67269.21
       --------------                             --------------
         LAND SURFACE =        1253629.02           LAND SURFACE =         -61444.89
            SOIL ZONE =        2001762.13              SOIL ZONE =           3971.94
     UNSATURATED ZONE =       -1342670.16       UNSATURATED ZONE =          -5525.04
       SATURATED ZONE =        -351725.43         SATURATED ZONE =          -4271.23

 OVERALL BUDGET ERROR =          -2415.33           BUDGET ERROR =            -15.71


  PERCENT DISCREPANCY =             -0.05    PERCENT DISCREPANCY =             -0.02



1
 SUMMARY VOLUMETRIC BUDGET FOR GSFLOW 
 DATE: 12 30 1980              CUMULATIVE TIME STEP:      91
 MODFLOW STRESS PERIOD      2     CURRENT TIME STEP:      91     ITERATIONS:       7

 -----------------------------------------------------------------------------------

   CUMULATIVE VOLUMES               L**3   RATES FOR THIS TIME STEP           L**3/T
   ------------------                      ------------------------

                                     IN                                         IN
                                     --                                         --
        PRECIPITATION =        4516757.54          PRECIPITATION =                  
           STREAMFLOW =                               STREAMFLOW =                  
     GW BOUNDARY FLOW =                         GW BOUNDARY FLOW =                  


                                    OUT                                        OUT
                                    ---                                        ---
   EVAPOTRANSPIRATION =        2319833.41     EVAPOTRANSPIRATION =          45049.31
           STREAMFLOW =        1177622.08             STREAMFLOW =          27214.07
     GW BOUNDARY FLOW =          65953.20       GW BOUNDARY FLOW =            728.87

   INFLOWS - OUTFLOWS =         953348.84     INFLOWS - OUTFLOWS =         -72992.25
             --------                                   --------

 TOTAL STORAGE CHANGE =         955861.05         STORAGE CHANGE =         -72980.44
       --------------                             --------------
         LAND SURFACE =         437672.58           LAND SURFACE =         -40763.84
            SOIL ZONE =        2237304.75              SOIL ZONE =         -25466.89
     UNSATURATED ZONE =       -1343944.33       UNSATURATED ZONE =          -2574.86
       SATURATED ZONE =        -375171.95         SATURATED ZONE =          -4174.86

 OVERALL BUDGET ERROR =          -2512.20           BUDGET ERROR =            -11.80


  PERCENT DISCREPANCY =             -0.06    PERCENT DISCREPANCY =             -0.02



1
 SUMMARY VOLUMETRIC BUDGET FOR GSFLOW 
 DATE: 01 06 1981              CUMULATIVE TIME STEP:      98
 MODFLOW STRESS PERIOD      2     CURRENT TIME STEP:      98     ITERATIONS:       8

 -----------------------------------------------------------------------------------

   CUMULATIVE VOLUMES               L**3   RATES FOR THIS TIME STEP           L**3/T
   ------------------                      ------------------------

                                     IN                                         IN
                                     --                                         --
        PRECIPITATION =        5004445.43          PRECIPITATION =                  
           STREAMFLOW =                               STREAMFLOW =                  
     GW BOUNDARY FLOW =                         GW BOUNDARY FLOW =                  


                                    OUT                                        OUT
                                    ---                                        ---
   EVAPOTRANSPIRATION =        2538815.82     EVAPOTRANSPIRATION =          21275.64
           STREAMFLOW =        1321203.87             STREAMFLOW =          19465.50
     GW BOUNDARY FLOW =          71045.54       GW BOUNDARY FLOW =            726.83

   INFLOWS - OUTFLOWS =        1073380.20     INFLOWS - OUTFLOWS =         -41467.97
             --------                                   --------

 TOTAL STORAGE CHANGE =        1075987.13         STORAGE CHANGE =         -41454.26
       --------------                             --------------
         LAND SURFACE =         692023.96           LAND SURFACE =         -29022.88
            SOIL ZONE =        2201169.72              SOIL ZONE =           3641.44
     UNSATURATED ZONE =       -1404099.10       UNSATURATED ZONE =         -10368.69
       SATURATED ZONE =        -413107.44         SATURATED ZONE =          -5704.13

 OVERALL BUDGET ERROR =          -2606.93           BUDGET ERROR =            -13.71


  PERCENT DISCREPANCY =             -0.05    PERCENT DISCREPANCY =             -0.03



1
 SUMMARY VOLUMETRIC BUDGET FOR GSFLOW 
 DATE: 01 13 1981              CUMULATIVE TIME STEP:     105
 MODFLOW STRESS PERIOD      2     CURRENT TIME STEP:     105     ITERATIONS:       5

 -----------------------------------------------------------------------------------

   CUMULATIVE VOLUMES               L**3   RATES FOR THIS TIME STEP           L**3/T
   ------------------                      ------------------------

                                     IN                                         IN
                                     --                                         --
        PRECIPITATION =        5004445.43          PRECIPITATION =                  
           STREAMFLOW =                               STREAMFLOW =                  
     GW BOUNDARY FLOW =                         GW BOUNDARY FLOW =                  


                                    OUT                                        OUT
                                    ---                                        ---
   EVAPOTRANSPIRATION =        2744875.51     EVAPOTRANSPIRATION =          43523.56
           STREAMFLOW =        1471756.13             STREAMFLOW =          20425.87
     GW BOUNDARY FLOW =          76132.82       GW BOUNDARY FLOW =            726.62

   INFLOWS - OUTFLOWS =         711680.98     INFLOWS - OUTFLOWS =         -64676.05
             --------                                   --------

 TOTAL STORAGE CHANGE =         714382.44         STORAGE CHANGE =         -64659.09
       --------------                             --------------
         LAND SURFACE =         427501.29           LAND SURFACE =         -35979.21
            SOIL ZONE =        2195791.41              SOIL ZONE =         -16110.84
     UNSATURATED ZONE =       -1453776.96       UNSATURATED ZONE =          -6247.78
       SATURATED ZONE =        -455133.30         SATURATED ZONE =          -6321.26

 OVERALL BUDGET ERROR =          -2701.46           BUDGET ERROR =            -16.96


  PERCENT DISCREPANCY =             -0.05    PERCENT DISCREPANCY =             -0.03



1
 SUMMARY VOLUMETRIC BUDGET FOR GSFLOW 
 DATE: 01 20 1981              CUMULATIVE TIME STEP:     112
 MODFLOW STRESS PERIOD      2     CURRENT TIME STEP:     112     ITERATIONS:       6

 -----------------------------------------------------------------------------------

   CUMULATIVE VOLUMES               L**3   RATES FOR THIS TIME STEP           L**3/T
   ------------------                      ------------------------

                                     IN                                         IN
                                     --                                         --
        PRECIPITATION =        5170466.84          PRECIPITATION =          41505.35
           STREAMFLOW =                               STREAMFLOW =                  
     GW BOUNDARY FLOW =                         GW BOUNDARY FLOW =                  


                                    OUT                                        OUT
                                    ---                                        ---
   EVAPOTRANSPIRATION =        3045511.74     EVAPOTRANSPIRATION =          54992.41
           STREAMFLOW =        1600777.60             STREAMFLOW =          17788.26
     GW BOUNDARY FLOW =          81216.52       GW BOUNDARY FLOW =            726.07

   INFLOWS - OUTFLOWS =         442960.98     INFLOWS - OUTFLOWS =         -32001.38
             --------                                   --------

 TOTAL STORAGE CHANGE =         445786.83         STORAGE CHANGE =         -31986.30
       --------------                             --------------
         LAND SURFACE =         310063.05           LAND SURFACE =          10146.14
            SOIL ZONE =        2129066.15              SOIL ZONE =         -31481.44
     UNSATURATED ZONE =       -1489768.77       UNSATURATED ZONE =          -3460.53
       SATURATED ZONE =        -503573.61         SATURATED ZONE =          -7190.46

 OVERALL BUDGET ERROR =          -2825.85           BUDGET ERROR =            -15.08


  PERCENT DISCREPANCY =             -0.05    PERCENT DISCREPANCY =             -0.02



1
 SUMMARY VOLUMETRIC BUDGET FOR GSFLOW 
 DATE: 01 27 1981              CUMULATIVE TIME STEP:     119
 MODFLOW STRESS PERIOD      2     CURRENT TIME STEP:     119     ITERATIONS:       6

 -----------------------------------------------------------------------------------

   CUMULATIVE VOLUMES               L**3   RATES FOR THIS TIME STEP           L**3/T
   ------------------                      ------------------------

                                     IN                                         IN
                                     --                                         --
        PRECIPITATION =        8646540.08          PRECIPITATION =        2936503.63
           STREAMFLOW =                               STREAMFLOW =                  
     GW BOUNDARY FLOW =                         GW BOUNDARY FLOW =                  


                                    OUT                                        OUT
                                    ---                                        ---
   EVAPOTRANSPIRATION =        3270398.62     EVAPOTRANSPIRATION =          12594.32
           STREAMFLOW =        1725109.48             STREAMFLOW =          17193.58
     GW BOUNDARY FLOW =          86297.94       GW BOUNDARY FLOW =            725.80

   INFLOWS - OUTFLOWS =        3564734.03     INFLOWS - OUTFLOWS =        2905989.93
             --------                                   --------

 TOTAL STORAGE CHANGE =        3567627.26         STORAGE CHANGE =        2905996.94
       --------------                             --------------
         LAND SURFACE =        3476438.32           LAND SURFACE =        2923909.40
            SOIL ZONE =        2161102.44              SOIL ZONE =          -2617.71
     UNSATURATED ZONE =       -1514848.61       UNSATURATED ZONE =          -7741.77
       SATURATED ZONE =        -555064.89         SATURATED ZONE =          -7552.98

 OVERALL BUDGET ERROR =          -2893.23           BUDGET ERROR =             -7.01


  PERCENT DISCREPANCY =             -0.03    PERCENT DISCREPANCY =              0.00



1
 SUMMARY VOLUMETRIC BUDGET FOR GSFLOW 
 DATE: 02 03 1981              CUMULATIVE TIME STEP:     126
 MODFLOW STRESS PERIOD      2     CURRENT TIME STEP:     126     ITERATIONS:       5

 -----------------------------------------------------------------------------------

   CUMULATIVE VOLUMES               L**3   RATES FOR THIS TIME STEP           L**3/T
   ------------------                      ------------------------

                                     IN                                         IN
                                     --                                         --
        PRECIPITATION =        1.1739D+07          PRECIPITATION =                  
           STREAMFLOW =                               STREAMFLOW =                  
     GW BOUNDARY FLOW =                         GW BOUNDARY FLOW =                  


                                    OUT                                        OUT
                                    ---                                        ---
   EVAPOTRANSPIRATION =        3307742.25     EVAPOTRANSPIRATION =           8129.77
           STREAMFLOW =        1846482.95             STREAMFLOW =          17550.23
     GW BOUNDARY FLOW =          91378.20       GW BOUNDARY FLOW =            725.76

   INFLOWS - OUTFLOWS =        6493085.37     INFLOWS - OUTFLOWS =         -26405.76
             --------                                   --------

 TOTAL STORAGE CHANGE =        6496038.38         STORAGE CHANGE =         -26389.39
       --------------                             --------------
         LAND SURFACE =        6531243.40           LAND SURFACE =          -8129.77
            SOIL ZONE =        2163666.34              SOIL ZONE =           1050.88
     UNSATURATED ZONE =       -1587775.11       UNSATURATED ZONE =         -11082.73
       SATURATED ZONE =        -611096.26         SATURATED ZONE =          -8227.76

 OVERALL BUDGET ERROR =          -2953.01           BUDGET ERROR =            -16.38


  PERCENT DISCREPANCY =             -0.03    PERCENT DISCREPANCY =             -0.06



1
 SUMMARY VOLUMETRIC BUDGET FOR GSFLOW 
 DATE: 02 10 1981              CUMULATIVE TIME STEP:     133
 MODFLOW STRESS PERIOD      2     CURRENT TIME STEP:     133     ITERATIONS:       5

 -----------------------------------------------------------------------------------

   CUMULATIVE VOLUMES               L**3   RATES FOR THIS TIME STEP           L**3/T
   ------------------                      ------------------------

                                     IN                                         IN
                                     --                                         --
        PRECIPITATION =        1.1838D+07          PRECIPITATION =                  
           STREAMFLOW =                               STREAMFLOW =                  
     GW BOUNDARY FLOW =                         GW BOUNDARY FLOW =                  


                                    OUT                                        OUT
                                    ---                                        ---
   EVAPOTRANSPIRATION =        3441546.73     EVAPOTRANSPIRATION =          34655.70
           STREAMFLOW =        1970563.65             STREAMFLOW =          17801.95
     GW BOUNDARY FLOW =          96458.76       GW BOUNDARY FLOW =            725.80

   INFLOWS - OUTFLOWS =        6329684.14     INFLOWS - OUTFLOWS =         -53183.45
             --------                                   --------

 TOTAL STORAGE CHANGE =        6332751.62         STORAGE CHANGE =         -53166.78
       --------------                             --------------
         LAND SURFACE =        6497003.43           LAND SURFACE =         -34655.70
            SOIL ZONE =        2169792.77              SOIL ZONE =            762.93
     UNSATURATED ZONE =       -1662622.20       UNSATURATED ZONE =         -10340.57
       SATURATED ZONE =        -671422.38         SATURATED ZONE =          -8933.45

 OVERALL BUDGET ERROR =          -3067.48           BUDGET ERROR =            -16.67


  PERCENT DISCREPANCY =             -0.03    PERCENT DISCREPANCY =             -0.03



1
 SUMMARY VOLUMETRIC BUDGET FOR GSFLOW 
 DATE: 02 17 1981              CUMULATIVE TIME STEP:     140
 MODFLOW STRESS PERIOD      2     CURRENT TIME STEP:     140     ITERATIONS:      10

 -----------------------------------------------------------------------------------

   CUMULATIVE VOLUMES               L**3   RATES FOR THIS TIME STEP           L**3/T
   ------------------                      ------------------------

                                     IN                                         IN
                                     --                                         --
        PRECIPITATION =        1.2765D+07          PRECIPITATION =          68929.28
           STREAMFLOW =                               STREAMFLOW =                  
     GW BOUNDARY FLOW =                         GW BOUNDARY FLOW =                  


                                    OUT                                        OUT
                                    ---                                        ---
   EVAPOTRANSPIRATION =        3785671.89     EVAPOTRANSPIRATION =          68545.82
           STREAMFLOW =        2496477.01             STREAMFLOW =         125787.67
     GW BOUNDARY FLOW =         101567.05       GW BOUNDARY FLOW =            734.38

   INFLOWS - OUTFLOWS =        6381253.15     INFLOWS - OUTFLOWS =        -126138.59
             --------                                   --------

 TOTAL STORAGE CHANGE =        6384413.06         STORAGE CHANGE =        -126124.54
       --------------                             --------------
         LAND SURFACE =        5530051.56           LAND SURFACE =        -291146.96
            SOIL ZONE =        2963284.63              SOIL ZONE =          81968.55
     UNSATURATED ZONE =       -1417478.14       UNSATURATED ZONE =          80811.92
       SATURATED ZONE =        -691445.00         SATURATED ZONE =           2241.95

 OVERALL BUDGET ERROR =          -3159.90           BUDGET ERROR =            -14.05


  PERCENT DISCREPANCY =             -0.02    PERCENT DISCREPANCY =             -0.01



1
 SUMMARY VOLUMETRIC BUDGET FOR GSFLOW 
 DATE: 02 24 1981              CUMULATIVE TIME STEP:     147
 MODFLOW STRESS PERIOD      2     CURRENT TIME STEP:     147     ITERATIONS:       9

 -----------------------------------------------------------------------------------

   CUMULATIVE VOLUMES               L**3   RATES FOR THIS TIME STEP           L**3/T
   ------------------                      ------------------------

                                     IN                                         IN
                                     --                                         --
        PRECIPITATION =        1.3179D+07          PRECIPITATION =         344646.37
           STREAMFLOW =                               STREAMFLOW =                  
     GW BOUNDARY FLOW =                         GW BOUNDARY FLOW =                  


                                    OUT                                        OUT
                                    ---                                        ---
   EVAPOTRANSPIRATION =        4137278.50     EVAPOTRANSPIRATION =          19833.49
           STREAMFLOW =        3098383.34             STREAMFLOW =          55263.39
     GW BOUNDARY FLOW =         106705.73       GW BOUNDARY FLOW =            732.85

   INFLOWS - OUTFLOWS =        5836177.18     INFLOWS - OUTFLOWS =         268816.64
             --------                                   --------

 TOTAL STORAGE CHANGE =        5839369.69         STORAGE CHANGE =         268814.77
       --------------                             --------------
         LAND SURFACE =        4808752.01           LAND SURFACE =         299225.92
            SOIL ZONE =        2719523.35              SOIL ZONE =         -66995.76
     UNSATURATED ZONE =       -1024408.67       UNSATURATED ZONE =          33229.08
       SATURATED ZONE =        -664497.01         SATURATED ZONE =           3355.53

 OVERALL BUDGET ERROR =          -3192.51           BUDGET ERROR =              1.88


  PERCENT DISCREPANCY =             -0.02    PERCENT DISCREPANCY =              0.00



1
 SUMMARY VOLUMETRIC BUDGET FOR GSFLOW 
 DATE: 03 03 1981              CUMULATIVE TIME STEP:     154
 MODFLOW STRESS PERIOD      2     CURRENT TIME STEP:     154     ITERATIONS:       8

 -----------------------------------------------------------------------------------

   CUMULATIVE VOLUMES               L**3   RATES FOR THIS TIME STEP           L**3/T
   ------------------                      ------------------------

                                     IN                                         IN
                                     --                                         --
        PRECIPITATION =        1.3447D+07          PRECIPITATION =                  
           STREAMFLOW =                               STREAMFLOW =                  
     GW BOUNDARY FLOW =                         GW BOUNDARY FLOW =                  


                                    OUT                                        OUT
                                    ---                                        ---
   EVAPOTRANSPIRATION =        4299913.55     EVAPOTRANSPIRATION =          44522.60
           STREAMFLOW =        3328889.62             STREAMFLOW =          28155.86
     GW BOUNDARY FLOW =         111815.60       GW BOUNDARY FLOW =            728.57

   INFLOWS - OUTFLOWS =        5705984.26     INFLOWS - OUTFLOWS =         -73407.03
             --------                                   --------

 TOTAL STORAGE CHANGE =        5709144.43         STORAGE CHANGE =         -73413.05
       --------------                             --------------
         LAND SURFACE =        4890318.80           LAND SURFACE =         -65841.24
            SOIL ZONE =        2490588.73              SOIL ZONE =           2128.92
     UNSATURATED ZONE =       -1007770.13       UNSATURATED ZONE =          -8165.48
       SATURATED ZONE =        -663992.98         SATURATED ZONE =          -1535.25

 OVERALL BUDGET ERROR =          -3160.17           BUDGET ERROR =              6.03


  PERCENT DISCREPANCY =             -0.02    PERCENT DISCREPANCY =              0.01



1
 SUMMARY VOLUMETRIC BUDGET FOR GSFLOW 
 DATE: 03 10 1981              CUMULATIVE TIME STEP:     161
 MODFLOW STRESS PERIOD      2     CURRENT TIME STEP:     161     ITERATIONS:       9

 -----------------------------------------------------------------------------------

   CUMULATIVE VOLUMES               L**3   RATES FOR THIS TIME STEP           L**3/T
   ------------------                      ------------------------

                                     IN                                         IN
                                     --                                         --
        PRECIPITATION =        1.3493D+07          PRECIPITATION =                  
           STREAMFLOW =                               STREAMFLOW =                  
     GW BOUNDARY FLOW =                         GW BOUNDARY FLOW =                  


                                    OUT                                        OUT
                                    ---                                        ---
   EVAPOTRANSPIRATION =        4619512.20     EVAPOTRANSPIRATION =          64003.70
           STREAMFLOW =        3582060.83             STREAMFLOW =          49199.83
     GW BOUNDARY FLOW =         116916.43       GW BOUNDARY FLOW =            729.82

   INFLOWS - OUTFLOWS =        5174451.69     INFLOWS - OUTFLOWS =        -113933.34
             --------                                   --------

 TOTAL STORAGE CHANGE =        5177605.53         STORAGE CHANGE =        -113929.70
       --------------                             --------------
         LAND SURFACE =        4172104.67           LAND SURFACE =        -177972.67
            SOIL ZONE =        2638668.51              SOIL ZONE =          37103.29
     UNSATURATED ZONE =        -962223.85       UNSATURATED ZONE =          26286.00
       SATURATED ZONE =        -670943.80         SATURATED ZONE =            653.68

 OVERALL BUDGET ERROR =          -3153.84           BUDGET ERROR =             -3.64


  PERCENT DISCREPANCY =             -0.02    PERCENT DISCREPANCY =              0.00



1
 SUMMARY VOLUMETRIC BUDGET FOR GSFLOW 
 DATE: 03 17 1981              CUMULATIVE TIME STEP:     168
 MODFLOW STRESS PERIOD      2     CURRENT TIME STEP:     168     ITERATIONS:       7

 -----------------------------------------------------------------------------------

   CUMULATIVE VOLUMES               L**3   RATES FOR THIS TIME STEP           L**3/T
   ------------------                      ------------------------

                                     IN                                         IN
                                     --                                         --
        PRECIPITATION =        1.3744D+07          PRECIPITATION =                  
           STREAMFLOW =                               STREAMFLOW =                  
     GW BOUNDARY FLOW =                         GW BOUNDARY FLOW =                  


                                    OUT                                        OUT
                                    ---                                        ---
   EVAPOTRANSPIRATION =        4976000.73     EVAPOTRANSPIRATION =          39557.80
           STREAMFLOW =        3831996.33             STREAMFLOW =          24977.38
     GW BOUNDARY FLOW =         122020.97       GW BOUNDARY FLOW =            728.32

   INFLOWS - OUTFLOWS =        4814472.85     INFLOWS - OUTFLOWS =         -65263.49
             --------                                   --------

 TOTAL STORAGE CHANGE =        4817614.50         STORAGE CHANGE =         -65255.83
       --------------                             --------------
         LAND SURFACE =        3971025.42           LAND SURFACE =         -39231.30
            SOIL ZONE =        2448561.60              SOIL ZONE =          -7000.81
     UNSATURATED ZONE =        -921079.25       UNSATURATED ZONE =         -15305.64
       SATURATED ZONE =        -680893.28         SATURATED ZONE =          -3718.07

 OVERALL BUDGET ERROR =          -3141.64           BUDGET ERROR =             -7.67


  PERCENT DISCREPANCY =             -0.02    PERCENT DISCREPANCY =             -0.01



1
 SUMMARY VOLUMETRIC BUDGET FOR GSFLOW 
 DATE: 03 24 1981              CUMULATIVE TIME STEP:     175
 MODFLOW STRESS PERIOD      2     CURRENT TIME STEP:     175     ITERATIONS:       8

 -----------------------------------------------------------------------------------

   CUMULATIVE VOLUMES               L**3   RATES FOR THIS TIME STEP           L**3/T
   ------------------                      ------------------------

                                     IN                                         IN
                                     --                                         --
        PRECIPITATION =        1.4367D+07          PRECIPITATION =                  
           STREAMFLOW =                               STREAMFLOW =                  
     GW BOUNDARY FLOW =                         GW BOUNDARY FLOW =                  


                                    OUT                                        OUT
                                    ---                                        ---
   EVAPOTRANSPIRATION =        5329058.20     EVAPOTRANSPIRATION =          85696.12
           STREAMFLOW =        4008792.34             STREAMFLOW =          27373.23
     GW BOUNDARY FLOW =         127114.08       GW BOUNDARY FLOW =            727.48

   INFLOWS - OUTFLOWS =        4901780.90     INFLOWS - OUTFLOWS =        -113796.83
             --------                                   --------

 TOTAL STORAGE CHANGE =        4904977.12         STORAGE CHANGE =        -113791.77
       --------------                             --------------
         LAND SURFACE =        4269142.17           LAND SURFACE =         -75933.97
            SOIL ZONE =        2345647.30              SOIL ZONE =         -29677.55
     UNSATURATED ZONE =        -998253.84       UNSATURATED ZONE =          -3707.32
       SATURATED ZONE =        -711558.52         SATURATED ZONE =          -4472.93

 OVERALL BUDGET ERROR =          -3196.23           BUDGET ERROR =             -5.07


  PERCENT DISCREPANCY =             -0.02    PERCENT DISCREPANCY =              0.00



1
 SUMMARY VOLUMETRIC BUDGET FOR GSFLOW 
 DATE: 03 31 1981              CUMULATIVE TIME STEP:     182
 MODFLOW STRESS PERIOD      2     CURRENT TIME STEP:     182     ITERATIONS:       8

 -----------------------------------------------------------------------------------

   CUMULATIVE VOLUMES               L**3   RATES FOR THIS TIME STEP           L**3/T
   ------------------                      ------------------------

                                     IN                                         IN
                                     --                                         --
        PRECIPITATION =        1.5777D+07          PRECIPITATION =                  
           STREAMFLOW =                               STREAMFLOW =                  
     GW BOUNDARY FLOW =                         GW BOUNDARY FLOW =                  


                                    OUT                                        OUT
                                    ---                                        ---
   EVAPOTRANSPIRATION =        5754568.14     EVAPOTRANSPIRATION =          55419.53
           STREAMFLOW =        4484875.82             STREAMFLOW =          36020.39
     GW BOUNDARY FLOW =         132232.64       GW BOUNDARY FLOW =            729.93

   INFLOWS - OUTFLOWS =        5405071.39     INFLOWS - OUTFLOWS =         -92169.85
             --------                                   --------

 TOTAL STORAGE CHANGE =        5408270.39         STORAGE CHANGE =         -92176.95
       --------------                             --------------
         LAND SURFACE =        4389532.13           LAND SURFACE =         -61062.66
            SOIL ZONE =        2525416.26              SOIL ZONE =         -31909.99
     UNSATURATED ZONE =        -801733.54       UNSATURATED ZONE =           1282.01
       SATURATED ZONE =        -704944.46         SATURATED ZONE =           -486.32

 OVERALL BUDGET ERROR =          -3199.00           BUDGET ERROR =              7.10


  PERCENT DISCREPANCY =             -0.02    PERCENT DISCREPANCY =              0.01



1
 SUMMARY VOLUMETRIC BUDGET FOR GSFLOW 
 DATE: 04 07 1981              CUMULATIVE TIME STEP:     189
 MODFLOW STRESS PERIOD      2     CURRENT TIME STEP:     189     ITERATIONS:       7

 -----------------------------------------------------------------------------------

   CUMULATIVE VOLUMES               L**3   RATES FOR THIS TIME STEP           L**3/T
   ------------------                      ------------------------

                                     IN                                         IN
                                     --                                         --
        PRECIPITATION =        1.6121D+07          PRECIPITATION =                  
           STREAMFLOW =                               STREAMFLOW =                  
     GW BOUNDARY FLOW =                         GW BOUNDARY FLOW =                  


                                    OUT                                        OUT
                                    ---                                        ---
   EVAPOTRANSPIRATION =        6387116.04     EVAPOTRANSPIRATION =         106275.37
           STREAMFLOW =        4806843.44             STREAMFLOW =          43668.14
     GW BOUNDARY FLOW =         137344.81       GW BOUNDARY FLOW =            730.58

   INFLOWS - OUTFLOWS =        4790163.32     INFLOWS - OUTFLOWS =        -150674.10
             --------                                   --------

 TOTAL STORAGE CHANGE =        4793339.22         STORAGE CHANGE =        -150681.68
       --------------                             --------------
         LAND SURFACE =        3758658.86           LAND SURFACE =        -140478.70
            SOIL ZONE =        2457349.18              SOIL ZONE =         -22620.82
     UNSATURATED ZONE =        -722100.13       UNSATURATED ZONE =          11935.64
       SATURATED ZONE =        -700568.69         SATURATED ZONE =            482.20

 OVERALL BUDGET ERROR =          -3175.91           BUDGET ERROR =              7.59


  PERCENT DISCREPANCY =             -0.02    PERCENT DISCREPANCY =              0.01



1
 SUMMARY VOLUMETRIC BUDGET FOR GSFLOW 
 DATE: 04 14 1981              CUMULATIVE TIME STEP:     196
 MODFLOW STRESS PERIOD      2     CURRENT TIME STEP:     196     ITERATIONS:       9

 -----------------------------------------------------------------------------------

   CUMULATIVE VOLUMES               L**3   RATES FOR THIS TIME STEP           L**3/T
   ------------------                      ------------------------

                                     IN                                         IN
                                     --                                         --
        PRECIPITATION =        1.6121D+07          PRECIPITATION =                  
           STREAMFLOW =                               STREAMFLOW =                  
     GW BOUNDARY FLOW =                         GW BOUNDARY FLOW =                  


                                    OUT                                        OUT
                                    ---                                        ---
   EVAPOTRANSPIRATION =        7312585.33     EVAPOTRANSPIRATION =         189281.31
           STREAMFLOW =        5121717.95             STREAMFLOW =          51900.31
     GW BOUNDARY FLOW =         142455.93       GW BOUNDARY FLOW =            729.96

   INFLOWS - OUTFLOWS =        3544708.39     INFLOWS - OUTFLOWS =        -241911.58
             --------                                   --------

 TOTAL STORAGE CHANGE =        3547877.50         STORAGE CHANGE =        -241910.16
       --------------                             --------------
         LAND SURFACE =        2545805.88           LAND SURFACE =        -241680.66
            SOIL ZONE =        2331567.67              SOIL ZONE =         -20258.52
     UNSATURATED ZONE =        -635994.93       UNSATURATED ZONE =          17940.24
       SATURATED ZONE =        -693501.12         SATURATED ZONE =           2088.79

 OVERALL BUDGET ERROR =          -3169.11           BUDGET ERROR =             -1.42


  PERCENT DISCREPANCY =             -0.02    PERCENT DISCREPANCY =              0.00



1
 SUMMARY VOLUMETRIC BUDGET FOR GSFLOW 
 DATE: 04 21 1981              CUMULATIVE TIME STEP:     203
 MODFLOW STRESS PERIOD      2     CURRENT TIME STEP:     203     ITERATIONS:       9

 -----------------------------------------------------------------------------------

   CUMULATIVE VOLUMES               L**3   RATES FOR THIS TIME STEP           L**3/T
   ------------------                      ------------------------

                                     IN                                         IN
                                     --                                         --
        PRECIPITATION =        1.6310D+07          PRECIPITATION =                  
           STREAMFLOW =                               STREAMFLOW =                  
     GW BOUNDARY FLOW =                         GW BOUNDARY FLOW =                  


                                    OUT                                        OUT
                                    ---                                        ---
   EVAPOTRANSPIRATION =        8364124.05     EVAPOTRANSPIRATION =         150023.98
           STREAMFLOW =        5440160.28             STREAMFLOW =          42998.48
     GW BOUNDARY FLOW =         147560.27       GW BOUNDARY FLOW =            728.70

   INFLOWS - OUTFLOWS =        2358398.04     INFLOWS - OUTFLOWS =        -193751.16
             --------                                   --------

 TOTAL STORAGE CHANGE =        2361561.76         STORAGE CHANGE =        -193752.24
       --------------                             --------------
         LAND SURFACE =        1391014.76           LAND SURFACE =        -118766.53
            SOIL ZONE =        2174521.95              SOIL ZONE =         -93408.21
     UNSATURATED ZONE =        -527537.24       UNSATURATED ZONE =          15652.11
       SATURATED ZONE =        -676437.70         SATURATED ZONE =           2770.40

 OVERALL BUDGET ERROR =          -3163.72           BUDGET ERROR =              1.08


  PERCENT DISCREPANCY =             -0.02    PERCENT DISCREPANCY =              0.00



1
 SUMMARY VOLUMETRIC BUDGET FOR GSFLOW 
 DATE: 04 28 1981              CUMULATIVE TIME STEP:     210
 MODFLOW STRESS PERIOD      2     CURRENT TIME STEP:     210     ITERATIONS:      10

 -----------------------------------------------------------------------------------

   CUMULATIVE VOLUMES               L**3   RATES FOR THIS TIME STEP           L**3/T
   ------------------                      ------------------------

                                     IN                                         IN
                                     --                                         --
        PRECIPITATION =        1.6515D+07          PRECIPITATION =                  
           STREAMFLOW =                               STREAMFLOW =                  
     GW BOUNDARY FLOW =                         GW BOUNDARY FLOW =                  


                                    OUT                                        OUT
                                    ---                                        ---
   EVAPOTRANSPIRATION =        9587258.65     EVAPOTRANSPIRATION =         199592.54
           STREAMFLOW =        5631348.04             STREAMFLOW =          21528.06
     GW BOUNDARY FLOW =         152649.78       GW BOUNDARY FLOW =            725.96

   INFLOWS - OUTFLOWS =        1144176.43     INFLOWS - OUTFLOWS =        -221846.56
             --------                                   --------

 TOTAL STORAGE CHANGE =        1147355.76         STORAGE CHANGE =        -221840.68
       --------------                             --------------
         LAND SURFACE =         677724.38           LAND SURFACE =         -81519.97
            SOIL ZONE =        1679708.98              SOIL ZONE =        -133889.95
     UNSATURATED ZONE =        -535889.71       UNSATURATED ZONE =          -5761.82
       SATURATED ZONE =        -674187.89         SATURATED ZONE =           -668.94

 OVERALL BUDGET ERROR =          -3179.34           BUDGET ERROR =             -5.88


  PERCENT DISCREPANCY =             -0.02    PERCENT DISCREPANCY =              0.00



1
 SUMMARY VOLUMETRIC BUDGET FOR GSFLOW 
 DATE: 05 05 1981              CUMULATIVE TIME STEP:     217
 MODFLOW STRESS PERIOD      2     CURRENT TIME STEP:     217     ITERATIONS:       8

 -----------------------------------------------------------------------------------

   CUMULATIVE VOLUMES               L**3   RATES FOR THIS TIME STEP           L**3/T
   ------------------                      ------------------------

                                     IN                                         IN
                                     --                                         --
        PRECIPITATION =        1.6515D+07          PRECIPITATION =                  
           STREAMFLOW =                               STREAMFLOW =                  
     GW BOUNDARY FLOW =                         GW BOUNDARY FLOW =                  


                                    OUT                                        OUT
                                    ---                                        ---
   EVAPOTRANSPIRATION =        1.0439D+07     EVAPOTRANSPIRATION =          52080.67
           STREAMFLOW =        5724101.46             STREAMFLOW =          10212.18
     GW BOUNDARY FLOW =         157723.09       GW BOUNDARY FLOW =            724.01

   INFLOWS - OUTFLOWS =         194417.02     INFLOWS - OUTFLOWS =         -63016.86
             --------                                   --------

 TOTAL STORAGE CHANGE =         197653.55         STORAGE CHANGE =         -63010.01
       --------------                             --------------
         LAND SURFACE =         336666.74           LAND SURFACE =         -15575.42
            SOIL ZONE =        1178808.54              SOIL ZONE =         -28240.44
     UNSATURATED ZONE =        -627111.72       UNSATURATED ZONE =         -15580.49
       SATURATED ZONE =        -690710.01         SATURATED ZONE =          -3613.66

 OVERALL BUDGET ERROR =          -3236.54           BUDGET ERROR =             -6.85


  PERCENT DISCREPANCY =             -0.02    PERCENT DISCREPANCY =             -0.01



1
 SUMMARY VOLUMETRIC BUDGET FOR GSFLOW 
 DATE: 05 12 1981              CUMULATIVE TIME STEP:     224
 MODFLOW STRESS PERIOD      2     CURRENT TIME STEP:     224     ITERATIONS:       9

 -----------------------------------------------------------------------------------

   CUMULATIVE VOLUMES               L**3   RATES FOR THIS TIME STEP           L**3/T
   ------------------                      ------------------------

                                     IN                                         IN
                                     --                                         --
        PRECIPITATION =        1.6515D+07          PRECIPITATION =                  
           STREAMFLOW =                               STREAMFLOW =                  
     GW BOUNDARY FLOW =                         GW BOUNDARY FLOW =                  


                                    OUT                                        OUT
                                    ---                                        ---
   EVAPOTRANSPIRATION =        1.0920D+07     EVAPOTRANSPIRATION =          87531.17
           STREAMFLOW =        5793200.47             STREAMFLOW =          10391.47
     GW BOUNDARY FLOW =         162788.28       GW BOUNDARY FLOW =            723.47

   INFLOWS - OUTFLOWS =        -360384.73     INFLOWS - OUTFLOWS =         -98646.11
             --------                                   --------

 TOTAL STORAGE CHANGE =        -357072.23         STORAGE CHANGE =         -98637.23
       --------------                             --------------
         LAND SURFACE =         203563.85           LAND SURFACE =         -23453.82
            SOIL ZONE =         895131.42              SOIL ZONE =         -56193.84
     UNSATURATED ZONE =        -730980.86       UNSATURATED ZONE =         -13198.00
       SATURATED ZONE =        -724786.64         SATURATED ZONE =          -5791.56

 OVERALL BUDGET ERROR =          -3312.50           BUDGET ERROR =             -8.88


  PERCENT DISCREPANCY =             -0.02    PERCENT DISCREPANCY =             -0.01



1
 SUMMARY VOLUMETRIC BUDGET FOR GSFLOW 
 DATE: 05 19 1981              CUMULATIVE TIME STEP:     231
 MODFLOW STRESS PERIOD      2     CURRENT TIME STEP:     231     ITERATIONS:      11

 -----------------------------------------------------------------------------------

   CUMULATIVE VOLUMES               L**3   RATES FOR THIS TIME STEP           L**3/T
   ------------------                      ------------------------

                                     IN                                         IN
                                     --                                         --
        PRECIPITATION =        1.7837D+07          PRECIPITATION =         169045.43
           STREAMFLOW =                               STREAMFLOW =                  
     GW BOUNDARY FLOW =                         GW BOUNDARY FLOW =                  


                                    OUT                                        OUT
                                    ---                                        ---
   EVAPOTRANSPIRATION =        1.1304D+07     EVAPOTRANSPIRATION =          31098.89
           STREAMFLOW =        5918237.94             STREAMFLOW =          23257.53
     GW BOUNDARY FLOW =         167855.54       GW BOUNDARY FLOW =            725.15

   INFLOWS - OUTFLOWS =         446698.04     INFLOWS - OUTFLOWS =         113963.85
             --------                                   --------

 TOTAL STORAGE CHANGE =         450078.35         STORAGE CHANGE =         113973.12
       --------------                             --------------
         LAND SURFACE =         191593.15           LAND SURFACE =          21576.41
            SOIL ZONE =        1825647.56              SOIL ZONE =         101389.05
     UNSATURATED ZONE =        -800120.57       UNSATURATED ZONE =          -2816.03
       SATURATED ZONE =        -767041.79         SATURATED ZONE =          -6176.30

 OVERALL BUDGET ERROR =          -3380.31           BUDGET ERROR =             -9.27


  PERCENT DISCREPANCY =             -0.02    PERCENT DISCREPANCY =             -0.01



1
 SUMMARY VOLUMETRIC BUDGET FOR GSFLOW 
 DATE: 05 26 1981              CUMULATIVE TIME STEP:     238
 MODFLOW STRESS PERIOD      2     CURRENT TIME STEP:     238     ITERATIONS:       8

 -----------------------------------------------------------------------------------

   CUMULATIVE VOLUMES               L**3   RATES FOR THIS TIME STEP           L**3/T
   ------------------                      ------------------------

                                     IN                                         IN
                                     --                                         --
        PRECIPITATION =        1.8252D+07          PRECIPITATION =         284303.67
           STREAMFLOW =                               STREAMFLOW =                  
     GW BOUNDARY FLOW =                         GW BOUNDARY FLOW =                  


                                    OUT                                        OUT
                                    ---                                        ---
   EVAPOTRANSPIRATION =        1.2150D+07     EVAPOTRANSPIRATION =         134158.24
           STREAMFLOW =        6020747.12             STREAMFLOW =          18544.04
     GW BOUNDARY FLOW =         172924.42       GW BOUNDARY FLOW =            723.88

   INFLOWS - OUTFLOWS =         -91589.84     INFLOWS - OUTFLOWS =         130877.51
             --------                                   --------

 TOTAL STORAGE CHANGE =         -88143.45         STORAGE CHANGE =         130887.39
       --------------                             --------------
         LAND SURFACE =         117061.98           LAND SURFACE =          -7172.33
            SOIL ZONE =        1478206.69              SOIL ZONE =         155192.83
     UNSATURATED ZONE =        -867429.08       UNSATURATED ZONE =         -10344.72
       SATURATED ZONE =        -815983.04         SATURATED ZONE =          -6788.39

 OVERALL BUDGET ERROR =          -3446.39           BUDGET ERROR =             -9.87


  PERCENT DISCREPANCY =             -0.02    PERCENT DISCREPANCY =              0.00



1
 SUMMARY VOLUMETRIC BUDGET FOR GSFLOW 
 DATE: 06 02 1981              CUMULATIVE TIME STEP:     245
 MODFLOW STRESS PERIOD      2     CURRENT TIME STEP:     245     ITERATIONS:       8

 -----------------------------------------------------------------------------------

   CUMULATIVE VOLUMES               L**3   RATES FOR THIS TIME STEP           L**3/T
   ------------------                      ------------------------

                                     IN                                         IN
                                     --                                         --
        PRECIPITATION =        1.8318D+07          PRECIPITATION =          50869.96
           STREAMFLOW =                               STREAMFLOW =                  
     GW BOUNDARY FLOW =                         GW BOUNDARY FLOW =                  


                                    OUT                                        OUT
                                    ---                                        ---
   EVAPOTRANSPIRATION =        1.2930D+07     EVAPOTRANSPIRATION =          75778.07
           STREAMFLOW =        6086589.47             STREAMFLOW =           7490.80
     GW BOUNDARY FLOW =         177986.35       GW BOUNDARY FLOW =            722.61

   INFLOWS - OUTFLOWS =        -876262.65     INFLOWS - OUTFLOWS =         -33121.52
             --------                                   --------

 TOTAL STORAGE CHANGE =        -872749.08         STORAGE CHANGE =         -33113.23
       --------------                             --------------
         LAND SURFACE =          73864.41           LAND SURFACE =          28867.96
            SOIL ZONE =         878472.51              SOIL ZONE =         -40757.27
     UNSATURATED ZONE =        -951042.54       UNSATURATED ZONE =         -12637.03
       SATURATED ZONE =        -874043.46         SATURATED ZONE =          -8586.88

 OVERALL BUDGET ERROR =          -3513.58           BUDGET ERROR =             -8.29


  PERCENT DISCREPANCY =             -0.02    PERCENT DISCREPANCY =             -0.01



1
 SUMMARY VOLUMETRIC BUDGET FOR GSFLOW 
 DATE: 06 09 1981              CUMULATIVE TIME STEP:     252
 MODFLOW STRESS PERIOD      2     CURRENT TIME STEP:     252     ITERATIONS:      10

 -----------------------------------------------------------------------------------

   CUMULATIVE VOLUMES               L**3   RATES FOR THIS TIME STEP           L**3/T
   ------------------                      ------------------------

                                     IN                                         IN
                                     --                                         --
        PRECIPITATION =        1.8318D+07          PRECIPITATION =                  
           STREAMFLOW =                               STREAMFLOW =                  
     GW BOUNDARY FLOW =                         GW BOUNDARY FLOW =                  


                                    OUT                                        OUT
                                    ---                                        ---
   EVAPOTRANSPIRATION =        1.3421D+07     EVAPOTRANSPIRATION =          54267.07
           STREAMFLOW =        6133205.63             STREAMFLOW =           6320.67
     GW BOUNDARY FLOW =         183042.37       GW BOUNDARY FLOW =            722.11

   INFLOWS - OUTFLOWS =       -1418644.98     INFLOWS - OUTFLOWS =         -61309.86
             --------                                   --------

 TOTAL STORAGE CHANGE =       -1415058.54         STORAGE CHANGE =         -61300.93
       --------------                             --------------
         LAND SURFACE =          12494.43           LAND SURFACE =          -2879.30
            SOIL ZONE =         551574.09              SOIL ZONE =         -36236.69
     UNSATURATED ZONE =       -1041922.52       UNSATURATED ZONE =         -12983.68
       SATURATED ZONE =        -937204.53         SATURATED ZONE =          -9201.26

 OVERALL BUDGET ERROR =          -3586.45           BUDGET ERROR =             -8.92


  PERCENT DISCREPANCY =             -0.02    PERCENT DISCREPANCY =             -0.01



1
 SUMMARY VOLUMETRIC BUDGET FOR GSFLOW 
 DATE: 06 16 1981              CUMULATIVE TIME STEP:     259
 MODFLOW STRESS PERIOD      2     CURRENT TIME STEP:     259     ITERATIONS:       9

 -----------------------------------------------------------------------------------

   CUMULATIVE VOLUMES               L**3   RATES FOR THIS TIME STEP           L**3/T
   ------------------                      ------------------------

                                     IN                                         IN
                                     --                                         --
        PRECIPITATION =        1.8318D+07          PRECIPITATION =                  
           STREAMFLOW =                               STREAMFLOW =                  
     GW BOUNDARY FLOW =                         GW BOUNDARY FLOW =                  


                                    OUT                                        OUT
                                    ---                                        ---
   EVAPOTRANSPIRATION =        1.3617D+07     EVAPOTRANSPIRATION =          45102.38
           STREAMFLOW =        6176312.18             STREAMFLOW =           6103.52
     GW BOUNDARY FLOW =         188096.18       GW BOUNDARY FLOW =            721.89

   INFLOWS - OUTFLOWS =       -1662925.82     INFLOWS - OUTFLOWS =         -51927.79
             --------                                   --------

 TOTAL STORAGE CHANGE =       -1659283.86         STORAGE CHANGE =         -51920.34
       --------------                             --------------
         LAND SURFACE =           5635.72           LAND SURFACE =          -1248.06
            SOIL ZONE =         468293.50              SOIL ZONE =         -28792.66
     UNSATURATED ZONE =       -1130279.84       UNSATURATED ZONE =         -12420.37
       SATURATED ZONE =       -1002933.24         SATURATED ZONE =          -9459.25

 OVERALL BUDGET ERROR =          -3641.96           BUDGET ERROR =             -7.45


  PERCENT DISCREPANCY =             -0.02    PERCENT DISCREPANCY =             -0.01



1
 SUMMARY VOLUMETRIC BUDGET FOR GSFLOW 
 DATE: 06 23 1981              CUMULATIVE TIME STEP:     266
 MODFLOW STRESS PERIOD      2     CURRENT TIME STEP:     266     ITERATIONS:      10

 -----------------------------------------------------------------------------------

   CUMULATIVE VOLUMES               L**3   RATES FOR THIS TIME STEP           L**3/T
   ------------------                      ------------------------

                                     IN                                         IN
                                     --                                         --
        PRECIPITATION =        1.8318D+07          PRECIPITATION =                  
           STREAMFLOW =                               STREAMFLOW =                  
     GW BOUNDARY FLOW =                         GW BOUNDARY FLOW =                  


                                    OUT                                        OUT
                                    ---                                        ---
   EVAPOTRANSPIRATION =        1.3909D+07     EVAPOTRANSPIRATION =          32633.88
           STREAMFLOW =        6218275.95             STREAMFLOW =           5940.03
     GW BOUNDARY FLOW =         193152.14       GW BOUNDARY FLOW =            722.71

   INFLOWS - OUTFLOWS =       -2002021.55     INFLOWS - OUTFLOWS =         -39296.61
             --------                                   --------

 TOTAL STORAGE CHANGE =       -1998323.33         STORAGE CHANGE =         -39289.55
       --------------                             --------------
         LAND SURFACE =        2.7649D-09           LAND SURFACE =                  
            SOIL ZONE =         286880.42              SOIL ZONE =         -17696.04
     UNSATURATED ZONE =       -1213699.41       UNSATURATED ZONE =         -11674.73
       SATURATED ZONE =       -1071504.33         SATURATED ZONE =          -9918.77

 OVERALL BUDGET ERROR =          -3698.22           BUDGET ERROR =             -7.06


  PERCENT DISCREPANCY =             -0.02    PERCENT DISCREPANCY =             -0.02



1
 SUMMARY VOLUMETRIC BUDGET FOR GSFLOW 
 DATE: 06 30 1981              CUMULATIVE TIME STEP:     273
 MODFLOW STRESS PERIOD      2     CURRENT TIME STEP:     273     ITERATIONS:       8

 -----------------------------------------------------------------------------------

   CUMULATIVE VOLUMES               L**3   RATES FOR THIS TIME STEP           L**3/T
   ------------------                      ------------------------

                                     IN                                         IN
[...]
                                    ---                                        ---
   EVAPOTRANSPIRATION =        2.8737D+08     EVAPOTRANSPIRATION =          36011.48
           STREAMFLOW =        1.8138D+08             STREAMFLOW =           7022.89
     GW BOUNDARY FLOW =        4178735.17       GW BOUNDARY FLOW =            726.44

   INFLOWS - OUTFLOWS =       -7862421.95     INFLOWS - OUTFLOWS =         -43760.82
             --------                                   --------

 TOTAL STORAGE CHANGE =       -7831677.95         STORAGE CHANGE =         -43754.56
       --------------                             --------------
         LAND SURFACE =           3413.18           LAND SURFACE =           -684.22
            SOIL ZONE =         251259.43              SOIL ZONE =         -21440.71
     UNSATURATED ZONE =        5328025.10       UNSATURATED ZONE =         -27828.14
       SATURATED ZONE =       -1.3414D+07         SATURATED ZONE =           6198.52

 OVERALL BUDGET ERROR =         -30744.01           BUDGET ERROR =             -6.26


  PERCENT DISCREPANCY =             -0.01    PERCENT DISCREPANCY =             -0.01



1
 SUMMARY VOLUMETRIC BUDGET FOR GSFLOW 
 DATE: 07 30 1996              CUMULATIVE TIME STEP:    5782
 MODFLOW STRESS PERIOD      2     CURRENT TIME STEP:    5782     ITERATIONS:      10

 -----------------------------------------------------------------------------------

   CUMULATIVE VOLUMES               L**3   RATES FOR THIS TIME STEP           L**3/T
   ------------------                      ------------------------

                                     IN                                         IN
                                     --                                         --
        PRECIPITATION =        4.6511D+08          PRECIPITATION =                  
           STREAMFLOW =                               STREAMFLOW =                  
     GW BOUNDARY FLOW =                         GW BOUNDARY FLOW =                  


                                    OUT                                        OUT
                                    ---                                        ---
   EVAPOTRANSPIRATION =        2.8759D+08     EVAPOTRANSPIRATION =          23894.38
           STREAMFLOW =        1.8142D+08             STREAMFLOW =           6848.03
     GW BOUNDARY FLOW =        4183817.92       GW BOUNDARY FLOW =            725.85

   INFLOWS - OUTFLOWS =       -8089521.39     INFLOWS - OUTFLOWS =         -31468.26
             --------                                   --------

 TOTAL STORAGE CHANGE =       -8058725.95         STORAGE CHANGE =         -31461.50
       --------------                             --------------
         LAND SURFACE =            303.81           LAND SURFACE =           -298.55
            SOIL ZONE =         177252.07              SOIL ZONE =          -9889.24
     UNSATURATED ZONE =        5137958.29       UNSATURATED ZONE =         -27109.17
       SATURATED ZONE =       -1.3374D+07         SATURATED ZONE =           5835.45

 OVERALL BUDGET ERROR =         -30795.44           BUDGET ERROR =             -6.76


  PERCENT DISCREPANCY =             -0.01    PERCENT DISCREPANCY =             -0.02



1
 SUMMARY VOLUMETRIC BUDGET FOR GSFLOW 
 DATE: 08 06 1996              CUMULATIVE TIME STEP:    5789
 MODFLOW STRESS PERIOD      2     CURRENT TIME STEP:    5789     ITERATIONS:      10

 -----------------------------------------------------------------------------------

   CUMULATIVE VOLUMES               L**3   RATES FOR THIS TIME STEP           L**3/T
   ------------------                      ------------------------

                                     IN                                         IN
                                     --                                         --
        PRECIPITATION =        4.6511D+08          PRECIPITATION =                  
           STREAMFLOW =                               STREAMFLOW =                  
     GW BOUNDARY FLOW =                         GW BOUNDARY FLOW =                  


                                    OUT                                        OUT
                                    ---                                        ---
   EVAPOTRANSPIRATION =        2.8772D+08     EVAPOTRANSPIRATION =          15974.56
           STREAMFLOW =        1.8147D+08             STREAMFLOW =           6640.31
     GW BOUNDARY FLOW =        4188898.36       GW BOUNDARY FLOW =            725.69

   INFLOWS - OUTFLOWS =       -8269674.09     INFLOWS - OUTFLOWS =         -23340.56
             --------                                   --------

 TOTAL STORAGE CHANGE =       -8238825.01         STORAGE CHANGE =         -23332.37
       --------------                             --------------
         LAND SURFACE =       -3.9835D-08           LAND SURFACE =                  
            SOIL ZONE =         145068.03              SOIL ZONE =          -2378.99
     UNSATURATED ZONE =        4953749.29       UNSATURATED ZONE =         -25675.66
       SATURATED ZONE =       -1.3338D+07         SATURATED ZONE =           4722.28

 OVERALL BUDGET ERROR =         -30849.08           BUDGET ERROR =             -8.19


  PERCENT DISCREPANCY =             -0.01    PERCENT DISCREPANCY =             -0.04



1
 SUMMARY VOLUMETRIC BUDGET FOR GSFLOW 
 DATE: 08 13 1996              CUMULATIVE TIME STEP:    5796
 MODFLOW STRESS PERIOD      2     CURRENT TIME STEP:    5796     ITERATIONS:      10

 -----------------------------------------------------------------------------------

   CUMULATIVE VOLUMES               L**3   RATES FOR THIS TIME STEP           L**3/T
   ------------------                      ------------------------

                                     IN                                         IN
                                     --                                         --
        PRECIPITATION =        4.6531D+08          PRECIPITATION =          54454.08
           STREAMFLOW =                               STREAMFLOW =                  
     GW BOUNDARY FLOW =                         GW BOUNDARY FLOW =                  


                                    OUT                                        OUT
                                    ---                                        ---
   EVAPOTRANSPIRATION =        2.8788D+08     EVAPOTRANSPIRATION =          30283.22
           STREAMFLOW =        1.8152D+08             STREAMFLOW =           7814.02
     GW BOUNDARY FLOW =        4193977.58       GW BOUNDARY FLOW =            725.61

   INFLOWS - OUTFLOWS =       -8277087.49     INFLOWS - OUTFLOWS =          15631.23
             --------                                   --------

 TOTAL STORAGE CHANGE =       -8246192.29         STORAGE CHANGE =          15639.38
       --------------                             --------------
         LAND SURFACE =          34505.06           LAND SURFACE =                  
            SOIL ZONE =         248345.34              SOIL ZONE =          36175.95
     UNSATURATED ZONE =        4778241.10       UNSATURATED ZONE =         -24496.42
       SATURATED ZONE =       -1.3307D+07         SATURATED ZONE =           3959.84

 OVERALL BUDGET ERROR =         -30895.20           BUDGET ERROR =             -8.14


  PERCENT DISCREPANCY =             -0.01    PERCENT DISCREPANCY =             -0.01



1
 SUMMARY VOLUMETRIC BUDGET FOR GSFLOW 
 DATE: 08 20 1996              CUMULATIVE TIME STEP:    5803
 MODFLOW STRESS PERIOD      2     CURRENT TIME STEP:    5803     ITERATIONS:      10

 -----------------------------------------------------------------------------------

   CUMULATIVE VOLUMES               L**3   RATES FOR THIS TIME STEP           L**3/T
   ------------------                      ------------------------

                                     IN                                         IN
                                     --                                         --
        PRECIPITATION =        4.6531D+08          PRECIPITATION =                  
           STREAMFLOW =                               STREAMFLOW =                  
     GW BOUNDARY FLOW =                         GW BOUNDARY FLOW =                  


                                    OUT                                        OUT
                                    ---                                        ---
   EVAPOTRANSPIRATION =        2.8806D+08     EVAPOTRANSPIRATION =          16678.37
           STREAMFLOW =        1.8157D+08             STREAMFLOW =           6439.45
     GW BOUNDARY FLOW =        4199054.69       GW BOUNDARY FLOW =            725.10

   INFLOWS - OUTFLOWS =       -8516525.63     INFLOWS - OUTFLOWS =         -23842.91
             --------                                   --------

 TOTAL STORAGE CHANGE =       -8485575.86         STORAGE CHANGE =         -23837.31
       --------------                             --------------
         LAND SURFACE =       -3.9836D-08           LAND SURFACE =                  
            SOIL ZONE =         187054.95              SOIL ZONE =          -3434.74
     UNSATURATED ZONE =        4611876.35       UNSATURATED ZONE =         -23224.04
       SATURATED ZONE =       -1.3285D+07         SATURATED ZONE =           2821.48

 OVERALL BUDGET ERROR =         -30949.77           BUDGET ERROR =             -5.60


  PERCENT DISCREPANCY =             -0.01    PERCENT DISCREPANCY =             -0.02



1
 SUMMARY VOLUMETRIC BUDGET FOR GSFLOW 
 DATE: 08 27 1996              CUMULATIVE TIME STEP:    5810
 MODFLOW STRESS PERIOD      2     CURRENT TIME STEP:    5810     ITERATIONS:      10

 -----------------------------------------------------------------------------------

   CUMULATIVE VOLUMES               L**3   RATES FOR THIS TIME STEP           L**3/T
   ------------------                      ------------------------

                                     IN                                         IN
                                     --                                         --
        PRECIPITATION =        4.6531D+08          PRECIPITATION =                  
           STREAMFLOW =                               STREAMFLOW =                  
     GW BOUNDARY FLOW =                         GW BOUNDARY FLOW =                  


                                    OUT                                        OUT
                                    ---                                        ---
   EVAPOTRANSPIRATION =        2.8820D+08     EVAPOTRANSPIRATION =          15281.47
           STREAMFLOW =        1.8161D+08             STREAMFLOW =           6280.04
     GW BOUNDARY FLOW =        4204128.64       GW BOUNDARY FLOW =            724.64

   INFLOWS - OUTFLOWS =       -8699685.86     INFLOWS - OUTFLOWS =         -22286.15
             --------                                   --------

 TOTAL STORAGE CHANGE =       -8668692.61         STORAGE CHANGE =         -22279.70
       --------------                             --------------
         LAND SURFACE =       -3.9836D-08           LAND SURFACE =                  
            SOIL ZONE =         145709.39              SOIL ZONE =          -2136.02
     UNSATURATED ZONE =        4451496.91       UNSATURATED ZONE =         -22556.17
       SATURATED ZONE =       -1.3266D+07         SATURATED ZONE =           2412.49

 OVERALL BUDGET ERROR =         -30993.25           BUDGET ERROR =             -6.45


  PERCENT DISCREPANCY =             -0.01    PERCENT DISCREPANCY =             -0.03



1
 SUMMARY VOLUMETRIC BUDGET FOR GSFLOW 
 DATE: 09 03 1996              CUMULATIVE TIME STEP:    5817
 MODFLOW STRESS PERIOD      2     CURRENT TIME STEP:    5817     ITERATIONS:      10

 -----------------------------------------------------------------------------------

   CUMULATIVE VOLUMES               L**3   RATES FOR THIS TIME STEP           L**3/T
   ------------------                      ------------------------

                                     IN                                         IN
                                     --                                         --
        PRECIPITATION =        4.6531D+08          PRECIPITATION =                  
           STREAMFLOW =                               STREAMFLOW =                  
     GW BOUNDARY FLOW =                         GW BOUNDARY FLOW =                  


                                    OUT                                        OUT
                                    ---                                        ---
   EVAPOTRANSPIRATION =        2.8830D+08     EVAPOTRANSPIRATION =          14299.68
           STREAMFLOW =        1.8165D+08             STREAMFLOW =           6172.72
     GW BOUNDARY FLOW =        4209199.49       GW BOUNDARY FLOW =            724.24

   INFLOWS - OUTFLOWS =       -8853855.40     INFLOWS - OUTFLOWS =         -21196.64
             --------                                   --------

 TOTAL STORAGE CHANGE =       -8822828.61         STORAGE CHANGE =         -21189.97
       --------------                             --------------
         LAND SURFACE =       -3.9836D-08           LAND SURFACE =                  
            SOIL ZONE =         131616.49              SOIL ZONE =          -1287.92
     UNSATURATED ZONE =        4297927.10       UNSATURATED ZONE =         -21790.32
       SATURATED ZONE =       -1.3252D+07         SATURATED ZONE =           1888.27

 OVERALL BUDGET ERROR =         -31026.79           BUDGET ERROR =             -6.66


  PERCENT DISCREPANCY =             -0.01    PERCENT DISCREPANCY =             -0.03



1
 SUMMARY VOLUMETRIC BUDGET FOR GSFLOW 
 DATE: 09 10 1996              CUMULATIVE TIME STEP:    5824
 MODFLOW STRESS PERIOD      2     CURRENT TIME STEP:    5824     ITERATIONS:       9

 -----------------------------------------------------------------------------------

   CUMULATIVE VOLUMES               L**3   RATES FOR THIS TIME STEP           L**3/T
   ------------------                      ------------------------

                                     IN                                         IN
                                     --                                         --
        PRECIPITATION =        4.6531D+08          PRECIPITATION =                  
           STREAMFLOW =                               STREAMFLOW =                  
     GW BOUNDARY FLOW =                         GW BOUNDARY FLOW =                  


                                    OUT                                        OUT
                                    ---                                        ---
   EVAPOTRANSPIRATION =        2.8839D+08     EVAPOTRANSPIRATION =          13559.46
           STREAMFLOW =        1.8170D+08             STREAMFLOW =           6078.42
     GW BOUNDARY FLOW =        4214267.71       GW BOUNDARY FLOW =            723.87

   INFLOWS - OUTFLOWS =       -8986848.86     INFLOWS - OUTFLOWS =         -20361.75
             --------                                   --------

 TOTAL STORAGE CHANGE =       -8955793.47         STORAGE CHANGE =         -20357.89
       --------------                             --------------
         LAND SURFACE =       -3.9836D-08           LAND SURFACE =                  
            SOIL ZONE =         137078.28              SOIL ZONE =           -678.49
     UNSATURATED ZONE =        4148832.86       UNSATURATED ZONE =         -20801.19
       SATURATED ZONE =       -1.3242D+07         SATURATED ZONE =           1121.79

 OVERALL BUDGET ERROR =         -31055.38           BUDGET ERROR =             -3.86


  PERCENT DISCREPANCY =             -0.01    PERCENT DISCREPANCY =             -0.02



1
 SUMMARY VOLUMETRIC BUDGET FOR GSFLOW 
 DATE: 09 17 1996              CUMULATIVE TIME STEP:    5831
 MODFLOW STRESS PERIOD      2     CURRENT TIME STEP:    5831     ITERATIONS:       9

 -----------------------------------------------------------------------------------

   CUMULATIVE VOLUMES               L**3   RATES FOR THIS TIME STEP           L**3/T
   ------------------                      ------------------------

                                     IN                                         IN
                                     --                                         --
        PRECIPITATION =        4.6637D+08          PRECIPITATION =                  
           STREAMFLOW =                               STREAMFLOW =                  
     GW BOUNDARY FLOW =                         GW BOUNDARY FLOW =                  


                                    OUT                                        OUT
                                    ---                                        ---
   EVAPOTRANSPIRATION =        2.8858D+08     EVAPOTRANSPIRATION =          67792.43
           STREAMFLOW =        1.8176D+08             STREAMFLOW =           9924.64
     GW BOUNDARY FLOW =        4219335.82       GW BOUNDARY FLOW =            724.48

   INFLOWS - OUTFLOWS =       -8192385.63     INFLOWS - OUTFLOWS =         -78441.54
             --------                                   --------

 TOTAL STORAGE CHANGE =       -8161316.57         STORAGE CHANGE =         -78437.15
       --------------                             --------------
         LAND SURFACE =       -3.9836D-08           LAND SURFACE =         -34505.06
            SOIL ZONE =        1066241.50              SOIL ZONE =         -24460.90
     UNSATURATED ZONE =        4005550.70       UNSATURATED ZONE =         -20134.66
       SATURATED ZONE =       -1.3233D+07         SATURATED ZONE =            663.48

 OVERALL BUDGET ERROR =         -31069.06           BUDGET ERROR =             -4.39


  PERCENT DISCREPANCY =             -0.01    PERCENT DISCREPANCY =             -0.01



1
 SUMMARY VOLUMETRIC BUDGET FOR GSFLOW 
 DATE: 09 24 1996              CUMULATIVE TIME STEP:    5838
 MODFLOW STRESS PERIOD      2     CURRENT TIME STEP:    5838     ITERATIONS:       9

 -----------------------------------------------------------------------------------

   CUMULATIVE VOLUMES               L**3   RATES FOR THIS TIME STEP           L**3/T
   ------------------                      ------------------------

                                     IN                                         IN
                                     --                                         --
        PRECIPITATION =        4.6637D+08          PRECIPITATION =                  
           STREAMFLOW =                               STREAMFLOW =                  
     GW BOUNDARY FLOW =                         GW BOUNDARY FLOW =                  


                                    OUT                                        OUT
                                    ---                                        ---
   EVAPOTRANSPIRATION =        2.8909D+08     EVAPOTRANSPIRATION =          55399.15
           STREAMFLOW =        1.8181D+08             STREAMFLOW =           6256.35
     GW BOUNDARY FLOW =        4224402.28       GW BOUNDARY FLOW =            723.39

   INFLOWS - OUTFLOWS =       -8758418.33     INFLOWS - OUTFLOWS =         -62378.89
             --------                                   --------

 TOTAL STORAGE CHANGE =       -8727334.50         STORAGE CHANGE =         -62374.29
       --------------                             --------------
         LAND SURFACE =       -3.9836D-08           LAND SURFACE =                  
            SOIL ZONE =         635892.26              SOIL ZONE =         -43097.83
     UNSATURATED ZONE =        3869301.80       UNSATURATED ZONE =         -19070.52
       SATURATED ZONE =       -1.3233D+07         SATURATED ZONE =           -205.94

 OVERALL BUDGET ERROR =         -31083.83           BUDGET ERROR =             -4.60


  PERCENT DISCREPANCY =             -0.01    PERCENT DISCREPANCY =             -0.01



