1
 SUMMARY VOLUMETRIC BUDGET FOR GSFLOW 
 DATE: 10 07 1980              CUMULATIVE TIME STEP:       7
 MODFLOW STRESS PERIOD      2     CURRENT TIME STEP:       7     ITERATIONS:       6

 -----------------------------------------------------------------------------------

   CUMULATIVE VOLUMES               L**3   RATES FOR THIS TIME STEP           L**3/T
   ------------------                      ------------------------

                                     IN                                         IN
                                     --                                         --
        PRECIPITATION =                            PRECIPITATION =                  
           STREAMFLOW =                               STREAMFLOW =                  
     GW BOUNDARY FLOW =                         GW BOUNDARY FLOW =                  


                                    OUT                                        OUT
                                    ---                                        ---
   EVAPOTRANSPIRATION =          66594.92     EVAPOTRANSPIRATION =           9275.74
           STREAMFLOW =          42957.20             STREAMFLOW =           6065.74
     GW BOUNDARY FLOW =           4541.44       GW BOUNDARY FLOW =            648.70

   INFLOWS - OUTFLOWS =        -114093.56     INFLOWS - OUTFLOWS =         -15990.18
             --------                                   --------

 TOTAL STORAGE CHANGE =        -113691.75         STORAGE CHANGE =         -15928.44
       --------------                             --------------
         LAND SURFACE =                             LAND SURFACE =                  
            SOIL ZONE =          43927.22              SOIL ZONE =           6420.72
     UNSATURATED ZONE =        -144779.35       UNSATURATED ZONE =         -20361.11
       SATURATED ZONE =         -12839.63         SATURATED ZONE =          -1988.04

 OVERALL BUDGET ERROR =           -401.80           BUDGET ERROR =            -61.74


  PERCENT DISCREPANCY =             -0.35    PERCENT DISCREPANCY =             -0.39



1
 SUMMARY VOLUMETRIC BUDGET FOR GSFLOW 
 DATE: 10 14 1980              CUMULATIVE TIME STEP:      14
 MODFLOW STRESS PERIOD      2     CURRENT TIME STEP:      14     ITERATIONS:       6

 -----------------------------------------------------------------------------------

   CUMULATIVE VOLUMES               L**3   RATES FOR THIS TIME STEP           L**3/T
   ------------------                      ------------------------

                                     IN                                         IN
                                     --                                         --
        PRECIPITATION =         650779.83          PRECIPITATION =         164754.40
           STREAMFLOW =                               STREAMFLOW =                  
     GW BOUNDARY FLOW =                         GW BOUNDARY FLOW =                  


                                    OUT                                        OUT
                                    ---                                        ---
   EVAPOTRANSPIRATION =         162754.70     EVAPOTRANSPIRATION =          11477.49
           STREAMFLOW =          94354.21             STREAMFLOW =           7660.29
     GW BOUNDARY FLOW =           9082.95       GW BOUNDARY FLOW =            648.93

   INFLOWS - OUTFLOWS =         384587.97     INFLOWS - OUTFLOWS =         144967.69
             --------                                   --------

 TOTAL STORAGE CHANGE =         385432.88         STORAGE CHANGE =         145029.66
       --------------                             --------------
         LAND SURFACE =         183651.29           LAND SURFACE =         130477.11
            SOIL ZONE =         513859.73              SOIL ZONE =          36587.52
     UNSATURATED ZONE =        -284497.10       UNSATURATED ZONE =         -19623.87
       SATURATED ZONE =         -27581.05         SATURATED ZONE =          -2411.10

 OVERALL BUDGET ERROR =           -844.91           BUDGET ERROR =            -61.97


  PERCENT DISCREPANCY =             -0.13    PERCENT DISCREPANCY =             -0.04



1
 SUMMARY VOLUMETRIC BUDGET FOR GSFLOW 
 DATE: 10 21 1980              CUMULATIVE TIME STEP:      21
 MODFLOW STRESS PERIOD      2     CURRENT TIME STEP:      21     ITERATIONS:       6

 -----------------------------------------------------------------------------------

   CUMULATIVE VOLUMES               L**3   RATES FOR THIS TIME STEP           L**3/T
   ------------------                      ------------------------

                                     IN                                         IN
                                     --                                         --
        PRECIPITATION =         733157.03          PRECIPITATION =                  
           STREAMFLOW =                               STREAMFLOW =                  
     GW BOUNDARY FLOW =                         GW BOUNDARY FLOW =                  


                                    OUT                                        OUT
                                    ---                                        ---
   EVAPOTRANSPIRATION =         433035.70     EVAPOTRANSPIRATION =          44095.99
           STREAMFLOW =         144681.57             STREAMFLOW =           6695.49
     GW BOUNDARY FLOW =          13624.58       GW BOUNDARY FLOW =            648.71

   INFLOWS - OUTFLOWS =         141815.18     INFLOWS - OUTFLOWS =         -51440.20
             --------                                   --------

 TOTAL STORAGE CHANGE =         143110.17         STORAGE CHANGE =         -51370.42
       --------------                             --------------
         LAND SURFACE =        2.3874D-12           LAND SURFACE =                  
            SOIL ZONE =         608351.47              SOIL ZONE =         -29504.86
     UNSATURATED ZONE =        -418647.97       UNSATURATED ZONE =         -18825.46
       SATURATED ZONE =         -46593.32         SATURATED ZONE =          -3040.10

 OVERALL BUDGET ERROR =          -1295.00           BUDGET ERROR =            -69.78


  PERCENT DISCREPANCY =             -0.18    PERCENT DISCREPANCY =             -0.14



1
 SUMMARY VOLUMETRIC BUDGET FOR GSFLOW 
 DATE: 10 28 1980              CUMULATIVE TIME STEP:      28
 MODFLOW STRESS PERIOD      2     CURRENT TIME STEP:      28     ITERATIONS:       6

 -----------------------------------------------------------------------------------

   CUMULATIVE VOLUMES               L**3   RATES FOR THIS TIME STEP           L**3/T
   ------------------                      ------------------------

                                     IN                                         IN
                                     --                                         --
        PRECIPITATION =        1070903.53          PRECIPITATION =                  
           STREAMFLOW =                               STREAMFLOW =                  
     GW BOUNDARY FLOW =                         GW BOUNDARY FLOW =                  


                                    OUT                                        OUT
                                    ---                                        ---
   EVAPOTRANSPIRATION =         623846.10     EVAPOTRANSPIRATION =          24687.24
           STREAMFLOW =         197497.63             STREAMFLOW =           7778.00
     GW BOUNDARY FLOW =          18165.58       GW BOUNDARY FLOW =            648.77

   INFLOWS - OUTFLOWS =         231394.21     INFLOWS - OUTFLOWS =         -33114.02
             --------                                   --------

 TOTAL STORAGE CHANGE =         233206.16         STORAGE CHANGE =         -33039.67
       --------------                             --------------
         LAND SURFACE =          20524.24           LAND SURFACE =         -29854.69
            SOIL ZONE =         829249.08              SOIL ZONE =          18320.23
     UNSATURATED ZONE =        -547296.50       UNSATURATED ZONE =         -18005.69
       SATURATED ZONE =         -69270.65         SATURATED ZONE =          -3499.51

 OVERALL BUDGET ERROR =          -1811.95           BUDGET ERROR =            -74.35


  PERCENT DISCREPANCY =             -0.17    PERCENT DISCREPANCY =             -0.22



1
 SUMMARY VOLUMETRIC BUDGET FOR GSFLOW 
 DATE: 11 04 1980              CUMULATIVE TIME STEP:      35
 MODFLOW STRESS PERIOD      2     CURRENT TIME STEP:      35     ITERATIONS:       6

 -----------------------------------------------------------------------------------

   CUMULATIVE VOLUMES               L**3   RATES FOR THIS TIME STEP           L**3/T
   ------------------                      ------------------------

                                     IN                                         IN
                                     --                                         --
        PRECIPITATION =        1070903.53          PRECIPITATION =                  
           STREAMFLOW =                               STREAMFLOW =                  
     GW BOUNDARY FLOW =                         GW BOUNDARY FLOW =                  


                                    OUT                                        OUT
                                    ---                                        ---
   EVAPOTRANSPIRATION =         962104.94     EVAPOTRANSPIRATION =          43297.82
           STREAMFLOW =         246906.04             STREAMFLOW =           6483.61
     GW BOUNDARY FLOW =          22706.14       GW BOUNDARY FLOW =            648.56

   INFLOWS - OUTFLOWS =        -160813.60     INFLOWS - OUTFLOWS =         -50429.99
             --------                                   --------

 TOTAL STORAGE CHANGE =        -158441.15         STORAGE CHANGE =         -50347.84
       --------------                             --------------
         LAND SURFACE =       -7.8018D-12           LAND SURFACE =                  
            SOIL ZONE =         609072.16              SOIL ZONE =         -28796.51
     UNSATURATED ZONE =        -670846.96       UNSATURATED ZONE =         -17371.25
       SATURATED ZONE =         -96666.35         SATURATED ZONE =          -4180.08

 OVERALL BUDGET ERROR =          -2372.45           BUDGET ERROR =            -82.15


  PERCENT DISCREPANCY =             -0.19    PERCENT DISCREPANCY =             -0.16



1
 SUMMARY VOLUMETRIC BUDGET FOR GSFLOW 
 DATE: 11 11 1980              CUMULATIVE TIME STEP:      42
 MODFLOW STRESS PERIOD      2     CURRENT TIME STEP:      42     ITERATIONS:       8

 -----------------------------------------------------------------------------------

   CUMULATIVE VOLUMES               L**3   RATES FOR THIS TIME STEP           L**3/T
   ------------------                      ------------------------

                                     IN                                         IN
                                     --                                         --
        PRECIPITATION =        1573762.54          PRECIPITATION =         255182.19
           STREAMFLOW =                               STREAMFLOW =                  
     GW BOUNDARY FLOW =                         GW BOUNDARY FLOW =                  


                                    OUT                                        OUT
                                    ---                                        ---
   EVAPOTRANSPIRATION =        1194408.05     EVAPOTRANSPIRATION =          17062.61
           STREAMFLOW =         300438.32             STREAMFLOW =          10582.48
     GW BOUNDARY FLOW =          27246.42       GW BOUNDARY FLOW =            648.80

   INFLOWS - OUTFLOWS =          51669.75     INFLOWS - OUTFLOWS =         226888.30
             --------                                   --------

 TOTAL STORAGE CHANGE =          54572.85         STORAGE CHANGE =         226933.48
       --------------                             --------------
         LAND SURFACE =          76836.68           LAND SURFACE =          76836.68
            SOIL ZONE =         893618.93              SOIL ZONE =         170609.75
     UNSATURATED ZONE =        -789275.24       UNSATURATED ZONE =         -16446.01
       SATURATED ZONE =        -126607.52         SATURATED ZONE =          -4066.94

 OVERALL BUDGET ERROR =          -2903.10           BUDGET ERROR =            -45.19


  PERCENT DISCREPANCY =             -0.18    PERCENT DISCREPANCY =             -0.02



1
 SUMMARY VOLUMETRIC BUDGET FOR GSFLOW 
 DATE: 11 18 1980              CUMULATIVE TIME STEP:      49
 MODFLOW STRESS PERIOD      2     CURRENT TIME STEP:      49     ITERATIONS:       6

 -----------------------------------------------------------------------------------

   CUMULATIVE VOLUMES               L**3   RATES FOR THIS TIME STEP           L**3/T
   ------------------                      ------------------------

                                     IN                                         IN
                                     --                                         --
        PRECIPITATION =        1573762.54          PRECIPITATION =                  
           STREAMFLOW =                               STREAMFLOW =                  
     GW BOUNDARY FLOW =                         GW BOUNDARY FLOW =                  


                                    OUT                                        OUT
                                    ---                                        ---
   EVAPOTRANSPIRATION =        1291419.54     EVAPOTRANSPIRATION =          23202.05
           STREAMFLOW =         362263.14             STREAMFLOW =           9063.60
     GW BOUNDARY FLOW =          31788.16       GW BOUNDARY FLOW =            648.84

   INFLOWS - OUTFLOWS =        -111708.30     INFLOWS - OUTFLOWS =         -32914.50
             --------                                   --------

 TOTAL STORAGE CHANGE =        -108289.29         STORAGE CHANGE =         -32828.95
       --------------                             --------------
         LAND SURFACE =           5214.84           LAND SURFACE =          -7686.43
            SOIL ZONE =         948901.02              SOIL ZONE =          -4300.25
     UNSATURATED ZONE =        -903072.23       UNSATURATED ZONE =         -16024.99
       SATURATED ZONE =        -159332.92         SATURATED ZONE =          -4817.28

 OVERALL BUDGET ERROR =          -3419.01           BUDGET ERROR =            -85.55


  PERCENT DISCREPANCY =             -0.20    PERCENT DISCREPANCY =             -0.26



1
 SUMMARY VOLUMETRIC BUDGET FOR GSFLOW 
 DATE: 11 25 1980              CUMULATIVE TIME STEP:      56
 MODFLOW STRESS PERIOD      2     CURRENT TIME STEP:      56     ITERATIONS:       7

 -----------------------------------------------------------------------------------

   CUMULATIVE VOLUMES               L**3   RATES FOR THIS TIME STEP           L**3/T
   ------------------                      ------------------------

                                     IN                                         IN
                                     --                                         --
        PRECIPITATION =        1648816.13          PRECIPITATION =                  
           STREAMFLOW =                               STREAMFLOW =                  
     GW BOUNDARY FLOW =                         GW BOUNDARY FLOW =                  


                                    OUT                                        OUT
                                    ---                                        ---
   EVAPOTRANSPIRATION =        1380679.09     EVAPOTRANSPIRATION =           9277.87
           STREAMFLOW =         424748.59             STREAMFLOW =           9119.02
     GW BOUNDARY FLOW =          36329.99       GW BOUNDARY FLOW =            648.84

   INFLOWS - OUTFLOWS =        -192941.54     INFLOWS - OUTFLOWS =         -19045.73
             --------                                   --------

 TOTAL STORAGE CHANGE =        -188969.46         STORAGE CHANGE =         -18981.23
       --------------                             --------------
         LAND SURFACE =          53014.08           LAND SURFACE =          -9258.02
            SOIL ZONE =         966737.94              SOIL ZONE =          11140.36
     UNSATURATED ZONE =       -1012732.68       UNSATURATED ZONE =         -15407.62
       SATURATED ZONE =        -195988.80         SATURATED ZONE =          -5455.95

 OVERALL BUDGET ERROR =          -3972.08           BUDGET ERROR =            -64.50


  PERCENT DISCREPANCY =             -0.22    PERCENT DISCREPANCY =             -0.34



1
 SUMMARY VOLUMETRIC BUDGET FOR GSFLOW 
 DATE: 12 02 1980              CUMULATIVE TIME STEP:      63
 MODFLOW STRESS PERIOD      2     CURRENT TIME STEP:      63     ITERATIONS:       8

 -----------------------------------------------------------------------------------

   CUMULATIVE VOLUMES               L**3   RATES FOR THIS TIME STEP           L**3/T
   ------------------                      ------------------------

                                     IN                                         IN
                                     --                                         --
        PRECIPITATION =        2076621.55          PRECIPITATION =                  
           STREAMFLOW =                               STREAMFLOW =                  
     GW BOUNDARY FLOW =                         GW BOUNDARY FLOW =                  


                                    OUT                                        OUT
                                    ---                                        ---
   EVAPOTRANSPIRATION =        1591293.00     EVAPOTRANSPIRATION =          35187.84
           STREAMFLOW =         499309.93             STREAMFLOW =          13033.29
     GW BOUNDARY FLOW =          40872.80       GW BOUNDARY FLOW =            649.22

   INFLOWS - OUTFLOWS =         -54854.18     INFLOWS - OUTFLOWS =         -48870.35
             --------                                   --------

 TOTAL STORAGE CHANGE =         -50367.21         STORAGE CHANGE =         -48823.41
       --------------                             --------------
         LAND SURFACE =         139391.41           LAND SURFACE =         -82011.29
            SOIL ZONE =        1159344.58              SOIL ZONE =          51669.77
     UNSATURATED ZONE =       -1115388.47       UNSATURATED ZONE =         -13501.63
       SATURATED ZONE =        -233714.72         SATURATED ZONE =          -4980.26

 OVERALL BUDGET ERROR =          -4486.97           BUDGET ERROR =            -46.94


  PERCENT DISCREPANCY =             -0.21    PERCENT DISCREPANCY =             -0.10



1
 SUMMARY VOLUMETRIC BUDGET FOR GSFLOW 
 DATE: 12 09 1980              CUMULATIVE TIME STEP:      70
 MODFLOW STRESS PERIOD      2     CURRENT TIME STEP:      70     ITERATIONS:       7

 -----------------------------------------------------------------------------------

   CUMULATIVE VOLUMES               L**3   RATES FOR THIS TIME STEP           L**3/T
   ------------------                      ------------------------

                                     IN                                         IN
                                     --                                         --
        PRECIPITATION =        4284363.63          PRECIPITATION =                  
           STREAMFLOW =                               STREAMFLOW =                  
     GW BOUNDARY FLOW =                         GW BOUNDARY FLOW =                  


                                    OUT                                        OUT
                                    ---                                        ---
   EVAPOTRANSPIRATION =        1617854.96     EVAPOTRANSPIRATION =           4181.54
           STREAMFLOW =         584867.31             STREAMFLOW =          12676.31
     GW BOUNDARY FLOW =          45418.06       GW BOUNDARY FLOW =            649.42

   INFLOWS - OUTFLOWS =        2036223.30     INFLOWS - OUTFLOWS =         -17507.27
             --------                                   --------

 TOTAL STORAGE CHANGE =        2041143.94         STORAGE CHANGE =         -17440.01
       --------------                             --------------
         LAND SURFACE =        2318907.17           LAND SURFACE =          -4181.54
            SOIL ZONE =        1210279.06              SOIL ZONE =           6923.05
     UNSATURATED ZONE =       -1214540.61       UNSATURATED ZONE =         -14245.56
       SATURATED ZONE =        -273501.69         SATURATED ZONE =          -5935.96

 OVERALL BUDGET ERROR =          -4920.64           BUDGET ERROR =            -67.26


  PERCENT DISCREPANCY =             -0.11    PERCENT DISCREPANCY =             -0.38



1
 SUMMARY VOLUMETRIC BUDGET FOR GSFLOW 
 DATE: 12 16 1980              CUMULATIVE TIME STEP:      77
 MODFLOW STRESS PERIOD      2     CURRENT TIME STEP:      77     ITERATIONS:       7

 -----------------------------------------------------------------------------------

   CUMULATIVE VOLUMES               L**3   RATES FOR THIS TIME STEP           L**3/T
   ------------------                      ------------------------

                                     IN                                         IN
                                     --                                         --
        PRECIPITATION =        4284363.63          PRECIPITATION =                  
           STREAMFLOW =                               STREAMFLOW =                  
     GW BOUNDARY FLOW =                         GW BOUNDARY FLOW =                  


                                    OUT                                        OUT
                                    ---                                        ---
   EVAPOTRANSPIRATION =        1769291.78     EVAPOTRANSPIRATION =          35300.31
           STREAMFLOW =         692823.65             STREAMFLOW =          23217.80
     GW BOUNDARY FLOW =          49965.11       GW BOUNDARY FLOW =            650.04

   INFLOWS - OUTFLOWS =        1772283.09     INFLOWS - OUTFLOWS =         -59168.14
             --------                                   --------

 TOTAL STORAGE CHANGE =        1777643.74         STORAGE CHANGE =         -59110.52
       --------------                             --------------
         LAND SURFACE =        1969972.18           LAND SURFACE =        -143770.84
            SOIL ZONE =        1426768.28              SOIL ZONE =          98638.03
     UNSATURATED ZONE =       -1305177.01       UNSATURATED ZONE =          -9467.52
       SATURATED ZONE =        -313919.72         SATURATED ZONE =          -4510.20

 OVERALL BUDGET ERROR =          -5360.65           BUDGET ERROR =            -57.63


  PERCENT DISCREPANCY =             -0.13    PERCENT DISCREPANCY =             -0.10



1
 SUMMARY VOLUMETRIC BUDGET FOR GSFLOW 
 DATE: 12 23 1980              CUMULATIVE TIME STEP:      84
 MODFLOW STRESS PERIOD      2     CURRENT TIME STEP:      84     ITERATIONS:      10

 -----------------------------------------------------------------------------------

   CUMULATIVE VOLUMES               L**3   RATES FOR THIS TIME STEP           L**3/T
   ------------------                      ------------------------

                                     IN                                         IN
                                     --                                         --
        PRECIPITATION =        4516757.54          PRECIPITATION =                  
           STREAMFLOW =                               STREAMFLOW =                  
     GW BOUNDARY FLOW =                         GW BOUNDARY FLOW =                  


                                    OUT                                        OUT
                                    ---                                        ---
   EVAPOTRANSPIRATION =        1977100.35     EVAPOTRANSPIRATION =          34832.01
           STREAMFLOW =         924218.69             STREAMFLOW =          31894.54
     GW BOUNDARY FLOW =          54525.41       GW BOUNDARY FLOW =            652.04

   INFLOWS - OUTFLOWS =        1560913.09     INFLOWS - OUTFLOWS =         -67378.60
             --------                                   --------

 TOTAL STORAGE CHANGE =        1566541.42         STORAGE CHANGE =         -67350.00
       --------------                             --------------
         LAND SURFACE =        1253629.02           LAND SURFACE =         -61444.89
            SOIL ZONE =        2002652.71              SOIL ZONE =           4165.49
     UNSATURATED ZONE =       -1348473.52       UNSATURATED ZONE =          -5734.80
       SATURATED ZONE =        -341266.80         SATURATED ZONE =          -4335.80

 OVERALL BUDGET ERROR =          -5628.33           BUDGET ERROR =            -28.59


  PERCENT DISCREPANCY =             -0.12    PERCENT DISCREPANCY =             -0.04



1
 SUMMARY VOLUMETRIC BUDGET FOR GSFLOW 
 DATE: 12 30 1980              CUMULATIVE TIME STEP:      91
 MODFLOW STRESS PERIOD      2     CURRENT TIME STEP:      91     ITERATIONS:      10

 -----------------------------------------------------------------------------------

   CUMULATIVE VOLUMES               L**3   RATES FOR THIS TIME STEP           L**3/T
   ------------------                      ------------------------

                                     IN                                         IN
                                     --                                         --
        PRECIPITATION =        4516757.54          PRECIPITATION =                  
           STREAMFLOW =                               STREAMFLOW =                  
     GW BOUNDARY FLOW =                         GW BOUNDARY FLOW =                  


                                    OUT                                        OUT
                                    ---                                        ---
   EVAPOTRANSPIRATION =        2320433.03     EVAPOTRANSPIRATION =          45049.31
           STREAMFLOW =        1182738.63             STREAMFLOW =          27408.23
     GW BOUNDARY FLOW =          59093.57       GW BOUNDARY FLOW =            652.57

   INFLOWS - OUTFLOWS =         954492.30     INFLOWS - OUTFLOWS =         -73110.10
             --------                                   --------

 TOTAL STORAGE CHANGE =         960247.52         STORAGE CHANGE =         -73094.39
       --------------                             --------------
         LAND SURFACE =         437672.58           LAND SURFACE =         -40763.84
            SOIL ZONE =        2238406.48              SOIL ZONE =         -25545.33
     UNSATURATED ZONE =       -1350663.85       UNSATURATED ZONE =          -2547.45
       SATURATED ZONE =        -365167.69         SATURATED ZONE =          -4237.78

 OVERALL BUDGET ERROR =          -5755.22           BUDGET ERROR =            -15.71


  PERCENT DISCREPANCY =             -0.13    PERCENT DISCREPANCY =             -0.02



1
 SUMMARY VOLUMETRIC BUDGET FOR GSFLOW 
 DATE: 01 06 1981              CUMULATIVE TIME STEP:      98
 MODFLOW STRESS PERIOD      2     CURRENT TIME STEP:      98     ITERATIONS:       8

 -----------------------------------------------------------------------------------

   CUMULATIVE VOLUMES               L**3   RATES FOR THIS TIME STEP           L**3/T
   ------------------                      ------------------------

                                     IN                                         IN
                                     --                                         --
        PRECIPITATION =        5004445.43          PRECIPITATION =                  
           STREAMFLOW =                               STREAMFLOW =                  
     GW BOUNDARY FLOW =                         GW BOUNDARY FLOW =                  


                                    OUT                                        OUT
                                    ---                                        ---
   EVAPOTRANSPIRATION =        2539415.45     EVAPOTRANSPIRATION =          21275.64
           STREAMFLOW =        1327668.29             STREAMFLOW =          19800.06
     GW BOUNDARY FLOW =          63654.28       GW BOUNDARY FLOW =            651.05

   INFLOWS - OUTFLOWS =        1073707.41     INFLOWS - OUTFLOWS =         -41726.75
             --------                                   --------

 TOTAL STORAGE CHANGE =        1079591.44         STORAGE CHANGE =         -41696.28
       --------------                             --------------
         LAND SURFACE =         692023.96           LAND SURFACE =         -29022.88
            SOIL ZONE =        2201761.94              SOIL ZONE =           3497.98
     UNSATURATED ZONE =       -1411009.05       UNSATURATED ZONE =         -10371.56
       SATURATED ZONE =        -403185.42         SATURATED ZONE =          -5799.82

 OVERALL BUDGET ERROR =          -5884.02           BUDGET ERROR =            -30.48


  PERCENT DISCREPANCY =             -0.12    PERCENT DISCREPANCY =             -0.07



1
 SUMMARY VOLUMETRIC BUDGET FOR GSFLOW 
 DATE: 01 13 1981              CUMULATIVE TIME STEP:     105
 MODFLOW STRESS PERIOD      2     CURRENT TIME STEP:     105     ITERATIONS:       8

 -----------------------------------------------------------------------------------

   CUMULATIVE VOLUMES               L**3   RATES FOR THIS TIME STEP           L**3/T
   ------------------                      ------------------------

                                     IN                                         IN
                                     --                                         --
        PRECIPITATION =        5004445.43          PRECIPITATION =                  
           STREAMFLOW =                               STREAMFLOW =                  
     GW BOUNDARY FLOW =                         GW BOUNDARY FLOW =                  


                                    OUT                                        OUT
                                    ---                                        ---
   EVAPOTRANSPIRATION =        2745470.07     EVAPOTRANSPIRATION =          43518.50
           STREAMFLOW =        1479277.06             STREAMFLOW =          20527.91
     GW BOUNDARY FLOW =          68211.19       GW BOUNDARY FLOW =            650.88

   INFLOWS - OUTFLOWS =         711487.12     INFLOWS - OUTFLOWS =         -64697.29
             --------                                   --------

 TOTAL STORAGE CHANGE =         717641.05         STORAGE CHANGE =         -64665.03
       --------------                             --------------
         LAND SURFACE =         427501.29           LAND SURFACE =         -35979.21
            SOIL ZONE =        2196381.71              SOIL ZONE =         -16112.45
     UNSATURATED ZONE =       -1461235.27       UNSATURATED ZONE =          -6321.64
       SATURATED ZONE =        -445006.68         SATURATED ZONE =          -6251.72

 OVERALL BUDGET ERROR =          -6153.92           BUDGET ERROR =            -32.27


  PERCENT DISCREPANCY =             -0.12    PERCENT DISCREPANCY =             -0.05



1
 SUMMARY VOLUMETRIC BUDGET FOR GSFLOW 
 DATE: 01 20 1981              CUMULATIVE TIME STEP:     112
 MODFLOW STRESS PERIOD      2     CURRENT TIME STEP:     112     ITERATIONS:       8

 -----------------------------------------------------------------------------------

   CUMULATIVE VOLUMES               L**3   RATES FOR THIS TIME STEP           L**3/T
   ------------------                      ------------------------

                                     IN                                         IN
                                     --                                         --
        PRECIPITATION =        5170466.84          PRECIPITATION =          41505.35
           STREAMFLOW =                               STREAMFLOW =                  
     GW BOUNDARY FLOW =                         GW BOUNDARY FLOW =                  


                                    OUT                                        OUT
                                    ---                                        ---
   EVAPOTRANSPIRATION =        3046076.97     EVAPOTRANSPIRATION =          54986.26
           STREAMFLOW =        1608868.98             STREAMFLOW =          17865.77
     GW BOUNDARY FLOW =          72765.04       GW BOUNDARY FLOW =            650.41

   INFLOWS - OUTFLOWS =         442755.84     INFLOWS - OUTFLOWS =         -31997.08
             --------                                   --------

 TOTAL STORAGE CHANGE =         449210.36         STORAGE CHANGE =         -31966.65
       --------------                             --------------
         LAND SURFACE =         310063.05           LAND SURFACE =          10146.14
            SOIL ZONE =        2128952.86              SOIL ZONE =         -31562.43
     UNSATURATED ZONE =       -1497338.12       UNSATURATED ZONE =          -3468.35
       SATURATED ZONE =        -492467.43         SATURATED ZONE =          -7082.01

 OVERALL BUDGET ERROR =          -6454.52           BUDGET ERROR =            -30.43


  PERCENT DISCREPANCY =             -0.12    PERCENT DISCREPANCY =             -0.04



1
 SUMMARY VOLUMETRIC BUDGET FOR GSFLOW 
 DATE: 01 27 1981              CUMULATIVE TIME STEP:     119
 MODFLOW STRESS PERIOD      2     CURRENT TIME STEP:     119     ITERATIONS:       8

 -----------------------------------------------------------------------------------

   CUMULATIVE VOLUMES               L**3   RATES FOR THIS TIME STEP           L**3/T
   ------------------                      ------------------------

                                     IN                                         IN
                                     --                                         --
        PRECIPITATION =        8646540.08          PRECIPITATION =        2936503.63
           STREAMFLOW =                               STREAMFLOW =                  
     GW BOUNDARY FLOW =                         GW BOUNDARY FLOW =                  


                                    OUT                                        OUT
                                    ---                                        ---
   EVAPOTRANSPIRATION =        3270940.84     EVAPOTRANSPIRATION =          12594.32
           STREAMFLOW =        1732648.00             STREAMFLOW =          17231.77
     GW BOUNDARY FLOW =          77317.05       GW BOUNDARY FLOW =            650.21

   INFLOWS - OUTFLOWS =        3565634.19     INFLOWS - OUTFLOWS =        2906027.34
             --------                                   --------

 TOTAL STORAGE CHANGE =        3572285.50         STORAGE CHANGE =        2906057.56
       --------------                             --------------
         LAND SURFACE =        3476438.32           LAND SURFACE =        2923909.40
            SOIL ZONE =        2160980.30              SOIL ZONE =          -2517.20
     UNSATURATED ZONE =       -1524078.57       UNSATURATED ZONE =          -8040.71
       SATURATED ZONE =        -541054.56         SATURATED ZONE =          -7293.93

 OVERALL BUDGET ERROR =          -6651.31           BUDGET ERROR =            -30.22


  PERCENT DISCREPANCY =             -0.08    PERCENT DISCREPANCY =              0.00



1
 SUMMARY VOLUMETRIC BUDGET FOR GSFLOW 
 DATE: 02 03 1981              CUMULATIVE TIME STEP:     126
 MODFLOW STRESS PERIOD      2     CURRENT TIME STEP:     126     ITERATIONS:       8

 -----------------------------------------------------------------------------------

   CUMULATIVE VOLUMES               L**3   RATES FOR THIS TIME STEP           L**3/T
   ------------------                      ------------------------

                                     IN                                         IN
                                     --                                         --
        PRECIPITATION =        1.1739D+07          PRECIPITATION =                  
           STREAMFLOW =                               STREAMFLOW =                  
     GW BOUNDARY FLOW =                         GW BOUNDARY FLOW =                  


                                    OUT                                        OUT
                                    ---                                        ---
   EVAPOTRANSPIRATION =        3308284.46     EVAPOTRANSPIRATION =           8129.77
           STREAMFLOW =        1854339.70             STREAMFLOW =          17603.29
     GW BOUNDARY FLOW =          81868.27       GW BOUNDARY FLOW =            650.19

   INFLOWS - OUTFLOWS =        6494196.33     INFLOWS - OUTFLOWS =         -26383.25
             --------                                   --------

 TOTAL STORAGE CHANGE =        6501130.07         STORAGE CHANGE =         -26343.11
       --------------                             --------------
         LAND SURFACE =        6531243.40           LAND SURFACE =          -8129.77
            SOIL ZONE =        2163235.73              SOIL ZONE =           1019.95
     UNSATURATED ZONE =       -1598376.66       UNSATURATED ZONE =         -11297.03
       SATURATED ZONE =        -594972.40         SATURATED ZONE =          -7936.26

 OVERALL BUDGET ERROR =          -6933.74           BUDGET ERROR =            -40.14


  PERCENT DISCREPANCY =             -0.06    PERCENT DISCREPANCY =             -0.15



1
 SUMMARY VOLUMETRIC BUDGET FOR GSFLOW 
 DATE: 02 10 1981              CUMULATIVE TIME STEP:     133
 MODFLOW STRESS PERIOD      2     CURRENT TIME STEP:     133     ITERATIONS:       7

 -----------------------------------------------------------------------------------

   CUMULATIVE VOLUMES               L**3   RATES FOR THIS TIME STEP           L**3/T
   ------------------                      ------------------------

                                     IN                                         IN
                                     --                                         --
        PRECIPITATION =        1.1838D+07          PRECIPITATION =                  
           STREAMFLOW =                               STREAMFLOW =                  
     GW BOUNDARY FLOW =                         GW BOUNDARY FLOW =                  


                                    OUT                                        OUT
                                    ---                                        ---
   EVAPOTRANSPIRATION =        3442088.94     EVAPOTRANSPIRATION =          34655.70
           STREAMFLOW =        1978836.82             STREAMFLOW =          17866.86
     GW BOUNDARY FLOW =          86419.72       GW BOUNDARY FLOW =            650.21

   INFLOWS - OUTFLOWS =        6330907.80     INFLOWS - OUTFLOWS =         -53172.77
             --------                                   --------

 TOTAL STORAGE CHANGE =        6338141.22         STORAGE CHANGE =         -53110.95
       --------------                             --------------
         LAND SURFACE =        6497003.43           LAND SURFACE =         -34655.70
            SOIL ZONE =        2169238.27              SOIL ZONE =            771.73
     UNSATURATED ZONE =       -1675018.15       UNSATURATED ZONE =         -10653.20
       SATURATED ZONE =        -653082.33         SATURATED ZONE =          -8573.78

 OVERALL BUDGET ERROR =          -7233.42           BUDGET ERROR =            -61.82


  PERCENT DISCREPANCY =             -0.06    PERCENT DISCREPANCY =             -0.12



1
 SUMMARY VOLUMETRIC BUDGET FOR GSFLOW 
 DATE: 02 17 1981              CUMULATIVE TIME STEP:     140
 MODFLOW STRESS PERIOD      2     CURRENT TIME STEP:     140     ITERATIONS:      14

 -----------------------------------------------------------------------------------

   CUMULATIVE VOLUMES               L**3   RATES FOR THIS TIME STEP           L**3/T
   ------------------                      ------------------------

                                     IN                                         IN
                                     --                                         --
        PRECIPITATION =        1.2765D+07          PRECIPITATION =          68929.28
           STREAMFLOW =                               STREAMFLOW =                  
     GW BOUNDARY FLOW =                         GW BOUNDARY FLOW =                  


                                    OUT                                        OUT
                                    ---                                        ---
   EVAPOTRANSPIRATION =        3786214.10     EVAPOTRANSPIRATION =          68545.82
           STREAMFLOW =        2506467.52             STREAMFLOW =         126211.67
     GW BOUNDARY FLOW =          90992.66       GW BOUNDARY FLOW =            656.77

   INFLOWS - OUTFLOWS =        6381294.82     INFLOWS - OUTFLOWS =        -126484.98
             --------                                   --------

 TOTAL STORAGE CHANGE =        6388765.59         STORAGE CHANGE =        -126480.79
       --------------                             --------------
         LAND SURFACE =        5530051.56           LAND SURFACE =        -291146.96
            SOIL ZONE =        2964989.67              SOIL ZONE =          82264.40
     UNSATURATED ZONE =       -1434169.87       UNSATURATED ZONE =          80174.13
       SATURATED ZONE =        -672105.78         SATURATED ZONE =           2227.65

 OVERALL BUDGET ERROR =          -7470.77           BUDGET ERROR =             -4.19


  PERCENT DISCREPANCY =             -0.06    PERCENT DISCREPANCY =              0.00



1
 SUMMARY VOLUMETRIC BUDGET FOR GSFLOW 
 DATE: 02 24 1981              CUMULATIVE TIME STEP:     147
 MODFLOW STRESS PERIOD      2     CURRENT TIME STEP:     147     ITERATIONS:      14

 -----------------------------------------------------------------------------------

   CUMULATIVE VOLUMES               L**3   RATES FOR THIS TIME STEP           L**3/T
   ------------------                      ------------------------

                                     IN                                         IN
                                     --                                         --
        PRECIPITATION =        1.3179D+07          PRECIPITATION =         344646.37
           STREAMFLOW =                               STREAMFLOW =                  
     GW BOUNDARY FLOW =                         GW BOUNDARY FLOW =                  


                                    OUT                                        OUT
                                    ---                                        ---
   EVAPOTRANSPIRATION =        4137820.72     EVAPOTRANSPIRATION =          19833.49
           STREAMFLOW =        3110994.83             STREAMFLOW =          55528.53
     GW BOUNDARY FLOW =          95588.86       GW BOUNDARY FLOW =            655.69

   INFLOWS - OUTFLOWS =        5834140.35     INFLOWS - OUTFLOWS =         268628.66
             --------                                   --------

 TOTAL STORAGE CHANGE =        5841511.57         STORAGE CHANGE =         268609.40
       --------------                             --------------
         LAND SURFACE =        4808752.01           LAND SURFACE =         299225.92
            SOIL ZONE =        2721597.78              SOIL ZONE =         -66878.64
     UNSATURATED ZONE =       -1042180.93       UNSATURATED ZONE =          33149.14
       SATURATED ZONE =        -646657.30         SATURATED ZONE =           3112.97

 OVERALL BUDGET ERROR =          -7371.22           BUDGET ERROR =             19.25


  PERCENT DISCREPANCY =             -0.06    PERCENT DISCREPANCY =              0.01



1
 SUMMARY VOLUMETRIC BUDGET FOR GSFLOW 
 DATE: 03 03 1981              CUMULATIVE TIME STEP:     154
 MODFLOW STRESS PERIOD      2     CURRENT TIME STEP:     154     ITERATIONS:      11

 -----------------------------------------------------------------------------------

   CUMULATIVE VOLUMES               L**3   RATES FOR THIS TIME STEP           L**3/T
   ------------------                      ------------------------

                                     IN                                         IN
                                     --                                         --
        PRECIPITATION =        1.3447D+07          PRECIPITATION =                  
           STREAMFLOW =                               STREAMFLOW =                  
     GW BOUNDARY FLOW =                         GW BOUNDARY FLOW =                  


                                    OUT                                        OUT
                                    ---                                        ---
   EVAPOTRANSPIRATION =        4300455.77     EVAPOTRANSPIRATION =          44522.60
           STREAMFLOW =        3342344.38             STREAMFLOW =          28205.11
     GW BOUNDARY FLOW =         100163.38       GW BOUNDARY FLOW =            652.40

   INFLOWS - OUTFLOWS =        5703639.51     INFLOWS - OUTFLOWS =         -73380.10
             --------                                   --------

 TOTAL STORAGE CHANGE =        5710842.15         STORAGE CHANGE =         -73402.59
       --------------                             --------------
         LAND SURFACE =        4890318.80           LAND SURFACE =         -65841.24
            SOIL ZONE =        2492658.75              SOIL ZONE =           2114.29
     UNSATURATED ZONE =       -1024228.42       UNSATURATED ZONE =          -7862.41
       SATURATED ZONE =        -647906.98         SATURATED ZONE =          -1813.23

 OVERALL BUDGET ERROR =          -7202.64           BUDGET ERROR =             22.48


  PERCENT DISCREPANCY =             -0.05    PERCENT DISCREPANCY =              0.03



1
 SUMMARY VOLUMETRIC BUDGET FOR GSFLOW 
 DATE: 03 10 1981              CUMULATIVE TIME STEP:     161
 MODFLOW STRESS PERIOD      2     CURRENT TIME STEP:     161     ITERATIONS:      12

 -----------------------------------------------------------------------------------

   CUMULATIVE VOLUMES               L**3   RATES FOR THIS TIME STEP           L**3/T
   ------------------                      ------------------------

                                     IN                                         IN
                                     --                                         --
        PRECIPITATION =        1.3493D+07          PRECIPITATION =                  
           STREAMFLOW =                               STREAMFLOW =                  
     GW BOUNDARY FLOW =                         GW BOUNDARY FLOW =                  


                                    OUT                                        OUT
                                    ---                                        ---
   EVAPOTRANSPIRATION =        4620054.41     EVAPOTRANSPIRATION =          64003.70
           STREAMFLOW =        3596265.27             STREAMFLOW =          49427.32
     GW BOUNDARY FLOW =         104730.91       GW BOUNDARY FLOW =            653.34

   INFLOWS - OUTFLOWS =        5171890.56     INFLOWS - OUTFLOWS =        -114084.36
             --------                                   --------

 TOTAL STORAGE CHANGE =        5178969.34         STORAGE CHANGE =        -114098.75
       --------------                             --------------
         LAND SURFACE =        4172104.67           LAND SURFACE =        -177972.67
            SOIL ZONE =        2640610.98              SOIL ZONE =          36975.57
     UNSATURATED ZONE =        -978217.84       UNSATURATED ZONE =          26116.96
       SATURATED ZONE =        -655528.47         SATURATED ZONE =            781.40

 OVERALL BUDGET ERROR =          -7078.78           BUDGET ERROR =             14.39


  PERCENT DISCREPANCY =             -0.05    PERCENT DISCREPANCY =              0.01



1
 SUMMARY VOLUMETRIC BUDGET FOR GSFLOW 
 DATE: 03 17 1981              CUMULATIVE TIME STEP:     168
 MODFLOW STRESS PERIOD      2     CURRENT TIME STEP:     168     ITERATIONS:      10

 -----------------------------------------------------------------------------------

   CUMULATIVE VOLUMES               L**3   RATES FOR THIS TIME STEP           L**3/T
   ------------------                      ------------------------

                                     IN                                         IN
                                     --                                         --
        PRECIPITATION =        1.3744D+07          PRECIPITATION =                  
           STREAMFLOW =                               STREAMFLOW =                  
     GW BOUNDARY FLOW =                         GW BOUNDARY FLOW =                  


                                    OUT                                        OUT
                                    ---                                        ---
   EVAPOTRANSPIRATION =        4976542.95     EVAPOTRANSPIRATION =          39557.80
           STREAMFLOW =        3847201.59             STREAMFLOW =          25034.40
     GW BOUNDARY FLOW =         109301.00       GW BOUNDARY FLOW =            652.17

   INFLOWS - OUTFLOWS =        4811445.35     INFLOWS - OUTFLOWS =         -65244.37
             --------                                   --------

 TOTAL STORAGE CHANGE =        4818390.20         STORAGE CHANGE =         -65253.13
       --------------                             --------------
         LAND SURFACE =        3971025.42           LAND SURFACE =         -39231.30
            SOIL ZONE =        2450625.87              SOIL ZONE =          -7051.40
     UNSATURATED ZONE =        -939520.31       UNSATURATED ZONE =         -15604.47
       SATURATED ZONE =        -663740.77         SATURATED ZONE =          -3365.96

 OVERALL BUDGET ERROR =          -6944.85           BUDGET ERROR =              8.76


  PERCENT DISCREPANCY =             -0.05    PERCENT DISCREPANCY =              0.01



1
 SUMMARY VOLUMETRIC BUDGET FOR GSFLOW 
 DATE: 03 24 1981              CUMULATIVE TIME STEP:     175
 MODFLOW STRESS PERIOD      2     CURRENT TIME STEP:     175     ITERATIONS:      10

 -----------------------------------------------------------------------------------

   CUMULATIVE VOLUMES               L**3   RATES FOR THIS TIME STEP           L**3/T
   ------------------                      ------------------------

                                     IN                                         IN
                                     --                                         --
        PRECIPITATION =        1.4367D+07          PRECIPITATION =                  
           STREAMFLOW =                               STREAMFLOW =                  
     GW BOUNDARY FLOW =                         GW BOUNDARY FLOW =                  


                                    OUT                                        OUT
                                    ---                                        ---
   EVAPOTRANSPIRATION =        5329600.41     EVAPOTRANSPIRATION =          85696.12
           STREAMFLOW =        4024191.13             STREAMFLOW =          27426.05
     GW BOUNDARY FLOW =         113862.28       GW BOUNDARY FLOW =            651.52

   INFLOWS - OUTFLOWS =        4899091.69     INFLOWS - OUTFLOWS =        -113773.69
             --------                                   --------

 TOTAL STORAGE CHANGE =        4905986.29         STORAGE CHANGE =        -113785.36
       --------------                             --------------
         LAND SURFACE =        4269142.17           LAND SURFACE =         -75933.97
            SOIL ZONE =        2347688.81              SOIL ZONE =         -29634.14
     UNSATURATED ZONE =       -1018381.42       UNSATURATED ZONE =          -4040.73
       SATURATED ZONE =        -692463.28         SATURATED ZONE =          -4176.52

 OVERALL BUDGET ERROR =          -6894.59           BUDGET ERROR =             11.67


  PERCENT DISCREPANCY =             -0.05    PERCENT DISCREPANCY =              0.01



1
 SUMMARY VOLUMETRIC BUDGET FOR GSFLOW 
 DATE: 03 31 1981              CUMULATIVE TIME STEP:     182
 MODFLOW STRESS PERIOD      2     CURRENT TIME STEP:     182     ITERATIONS:      12

 -----------------------------------------------------------------------------------

   CUMULATIVE VOLUMES               L**3   RATES FOR THIS TIME STEP           L**3/T
   ------------------                      ------------------------

                                     IN                                         IN
                                     --                                         --
        PRECIPITATION =        1.5777D+07          PRECIPITATION =                  
           STREAMFLOW =                               STREAMFLOW =                  
     GW BOUNDARY FLOW =                         GW BOUNDARY FLOW =                  


                                    OUT                                        OUT
                                    ---                                        ---
   EVAPOTRANSPIRATION =        5755110.36     EVAPOTRANSPIRATION =          55419.53
           STREAMFLOW =        4502006.21             STREAMFLOW =          36124.88
     GW BOUNDARY FLOW =         118442.96       GW BOUNDARY FLOW =            653.37

   INFLOWS - OUTFLOWS =        5401188.46     INFLOWS - OUTFLOWS =         -92197.77
             --------                                   --------

 TOTAL STORAGE CHANGE =        5407973.63         STORAGE CHANGE =         -92224.12
       --------------                             --------------
         LAND SURFACE =        4389532.13           LAND SURFACE =         -61062.66
            SOIL ZONE =        2527399.76              SOIL ZONE =         -31894.61
     UNSATURATED ZONE =        -824794.59       UNSATURATED ZONE =           1066.43
       SATURATED ZONE =        -684163.67         SATURATED ZONE =           -333.28

 OVERALL BUDGET ERROR =          -6785.17           BUDGET ERROR =             26.34


  PERCENT DISCREPANCY =             -0.04    PERCENT DISCREPANCY =              0.03



1
 SUMMARY VOLUMETRIC BUDGET FOR GSFLOW 
 DATE: 04 07 1981              CUMULATIVE TIME STEP:     189
 MODFLOW STRESS PERIOD      2     CURRENT TIME STEP:     189     ITERATIONS:      10

 -----------------------------------------------------------------------------------

   CUMULATIVE VOLUMES               L**3   RATES FOR THIS TIME STEP           L**3/T
   ------------------                      ------------------------

                                     IN                                         IN
                                     --                                         --
        PRECIPITATION =        1.6121D+07          PRECIPITATION =                  
           STREAMFLOW =                               STREAMFLOW =                  
     GW BOUNDARY FLOW =                         GW BOUNDARY FLOW =                  


                                    OUT                                        OUT
                                    ---                                        ---
   EVAPOTRANSPIRATION =        6387658.25     EVAPOTRANSPIRATION =         106275.37
           STREAMFLOW =        4825124.06             STREAMFLOW =          43827.95
     GW BOUNDARY FLOW =         123018.91       GW BOUNDARY FLOW =            653.86

   INFLOWS - OUTFLOWS =        4785666.39     INFLOWS - OUTFLOWS =        -150757.18
             --------                                   --------

 TOTAL STORAGE CHANGE =        4792280.09         STORAGE CHANGE =        -150796.70
       --------------                             --------------
         LAND SURFACE =        3758658.86           LAND SURFACE =        -140478.70
            SOIL ZONE =        2459076.48              SOIL ZONE =         -22636.21
     UNSATURATED ZONE =        -749004.34       UNSATURATED ZONE =          11142.18
       SATURATED ZONE =        -676450.91         SATURATED ZONE =           1176.03

 OVERALL BUDGET ERROR =          -6613.70           BUDGET ERROR =             39.52


  PERCENT DISCREPANCY =             -0.04    PERCENT DISCREPANCY =              0.03



1
 SUMMARY VOLUMETRIC BUDGET FOR GSFLOW 
 DATE: 04 14 1981              CUMULATIVE TIME STEP:     196
 MODFLOW STRESS PERIOD      2     CURRENT TIME STEP:     196     ITERATIONS:      13

 -----------------------------------------------------------------------------------

   CUMULATIVE VOLUMES               L**3   RATES FOR THIS TIME STEP           L**3/T
   ------------------                      ------------------------

                                     IN                                         IN
                                     --                                         --
        PRECIPITATION =        1.6121D+07          PRECIPITATION =                  
           STREAMFLOW =                               STREAMFLOW =                  
     GW BOUNDARY FLOW =                         GW BOUNDARY FLOW =                  


                                    OUT                                        OUT
                                    ---                                        ---
   EVAPOTRANSPIRATION =        7313110.94     EVAPOTRANSPIRATION =         189264.70
           STREAMFLOW =        5141411.45             STREAMFLOW =          52149.54
     GW BOUNDARY FLOW =         127593.62       GW BOUNDARY FLOW =            653.36

   INFLOWS - OUTFLOWS =        3539351.60     INFLOWS - OUTFLOWS =        -242067.60
             --------                                   --------

 TOTAL STORAGE CHANGE =        3545776.52         STORAGE CHANGE =        -242085.95
       --------------                             --------------
         LAND SURFACE =        2545805.88           LAND SURFACE =        -241680.66
            SOIL ZONE =        2333384.72              SOIL ZONE =         -20246.99
     UNSATURATED ZONE =        -666808.33       UNSATURATED ZONE =          17468.31
       SATURATED ZONE =        -666605.76         SATURATED ZONE =           2373.39

 OVERALL BUDGET ERROR =          -6424.92           BUDGET ERROR =             18.35


  PERCENT DISCREPANCY =             -0.04    PERCENT DISCREPANCY =              0.01



1
 SUMMARY VOLUMETRIC BUDGET FOR GSFLOW 
 DATE: 04 21 1981              CUMULATIVE TIME STEP:     203
 MODFLOW STRESS PERIOD      2     CURRENT TIME STEP:     203     ITERATIONS:      12

 -----------------------------------------------------------------------------------

   CUMULATIVE VOLUMES               L**3   RATES FOR THIS TIME STEP           L**3/T
   ------------------                      ------------------------

                                     IN                                         IN
                                     --                                         --
        PRECIPITATION =        1.6310D+07          PRECIPITATION =                  
           STREAMFLOW =                               STREAMFLOW =                  
     GW BOUNDARY FLOW =                         GW BOUNDARY FLOW =                  


                                    OUT                                        OUT
                                    ---                                        ---
   EVAPOTRANSPIRATION =        8365408.62     EVAPOTRANSPIRATION =         149993.46
           STREAMFLOW =        5461368.31             STREAMFLOW =          43197.75
     GW BOUNDARY FLOW =         132162.86       GW BOUNDARY FLOW =            652.35

   INFLOWS - OUTFLOWS =        2351302.84     INFLOWS - OUTFLOWS =        -193843.56
             --------                                   --------

 TOTAL STORAGE CHANGE =        2357539.15         STORAGE CHANGE =        -193878.36
       --------------                             --------------
         LAND SURFACE =        1391014.76           LAND SURFACE =        -118766.53
            SOIL ZONE =        2175399.63              SOIL ZONE =         -93466.72
     UNSATURATED ZONE =        -561364.32       UNSATURATED ZONE =          15372.48
       SATURATED ZONE =        -647510.92         SATURATED ZONE =           2982.41

 OVERALL BUDGET ERROR =          -6236.31           BUDGET ERROR =             34.80


  PERCENT DISCREPANCY =             -0.04    PERCENT DISCREPANCY =              0.02



1
 SUMMARY VOLUMETRIC BUDGET FOR GSFLOW 
 DATE: 04 28 1981              CUMULATIVE TIME STEP:     210
 MODFLOW STRESS PERIOD      2     CURRENT TIME STEP:     210     ITERATIONS:      13

 -----------------------------------------------------------------------------------

   CUMULATIVE VOLUMES               L**3   RATES FOR THIS TIME STEP           L**3/T
   ------------------                      ------------------------

                                     IN                                         IN
                                     --                                         --
        PRECIPITATION =        1.6515D+07          PRECIPITATION =                  
           STREAMFLOW =                               STREAMFLOW =                  
     GW BOUNDARY FLOW =                         GW BOUNDARY FLOW =                  


                                    OUT                                        OUT
                                    ---                                        ---
   EVAPOTRANSPIRATION =        9588869.14     EVAPOTRANSPIRATION =         200358.57
           STREAMFLOW =        5652847.12             STREAMFLOW =          21526.39
     GW BOUNDARY FLOW =         136720.31       GW BOUNDARY FLOW =            650.18

   INFLOWS - OUTFLOWS =        1136996.32     INFLOWS - OUTFLOWS =        -222535.15
             --------                                   --------

 TOTAL STORAGE CHANGE =        1143056.63         STORAGE CHANGE =        -222554.09
       --------------                             --------------
         LAND SURFACE =         677724.38           LAND SURFACE =         -81519.97
            SOIL ZONE =        1679790.77              SOIL ZONE =        -134713.32
     UNSATURATED ZONE =        -569747.59       UNSATURATED ZONE =          -5633.40
       SATURATED ZONE =        -644710.92         SATURATED ZONE =           -687.40

 OVERALL BUDGET ERROR =          -6060.31           BUDGET ERROR =             18.94


  PERCENT DISCREPANCY =             -0.04    PERCENT DISCREPANCY =              0.01



1
 SUMMARY VOLUMETRIC BUDGET FOR GSFLOW 
 DATE: 05 05 1981              CUMULATIVE TIME STEP:     217
 MODFLOW STRESS PERIOD      2     CURRENT TIME STEP:     217     ITERATIONS:      14

 -----------------------------------------------------------------------------------

   CUMULATIVE VOLUMES               L**3   RATES FOR THIS TIME STEP           L**3/T
   ------------------                      ------------------------

                                     IN                                         IN
                                     --                                         --
        PRECIPITATION =        1.6515D+07          PRECIPITATION =                  
           STREAMFLOW =                               STREAMFLOW =                  
     GW BOUNDARY FLOW =                         GW BOUNDARY FLOW =                  


                                    OUT                                        OUT
                                    ---                                        ---
   EVAPOTRANSPIRATION =        1.0440D+07     EVAPOTRANSPIRATION =          52038.55
           STREAMFLOW =        5745806.64             STREAMFLOW =          10253.80
     GW BOUNDARY FLOW =         141264.97       GW BOUNDARY FLOW =            648.66

   INFLOWS - OUTFLOWS =         188146.18     INFLOWS - OUTFLOWS =         -62941.01
             --------                                   --------

 TOTAL STORAGE CHANGE =         194112.12         STORAGE CHANGE =         -62946.37
       --------------                             --------------
         LAND SURFACE =         336666.74           LAND SURFACE =         -15575.42
            SOIL ZONE =        1179065.68              SOIL ZONE =         -28272.50
     UNSATURATED ZONE =        -663238.58       UNSATURATED ZONE =         -16181.29
       SATURATED ZONE =        -658381.71         SATURATED ZONE =          -2917.17

 OVERALL BUDGET ERROR =          -5965.94           BUDGET ERROR =              5.36


  PERCENT DISCREPANCY =             -0.04    PERCENT DISCREPANCY =              0.01



1
 SUMMARY VOLUMETRIC BUDGET FOR GSFLOW 
 DATE: 05 12 1981              CUMULATIVE TIME STEP:     224
 MODFLOW STRESS PERIOD      2     CURRENT TIME STEP:     224     ITERATIONS:      12

 -----------------------------------------------------------------------------------

   CUMULATIVE VOLUMES               L**3   RATES FOR THIS TIME STEP           L**3/T
   ------------------                      ------------------------

                                     IN                                         IN
                                     --                                         --
        PRECIPITATION =        1.6515D+07          PRECIPITATION =                  
           STREAMFLOW =                               STREAMFLOW =                  
     GW BOUNDARY FLOW =                         GW BOUNDARY FLOW =                  


                                    OUT                                        OUT
                                    ---                                        ---
   EVAPOTRANSPIRATION =        1.0920D+07     EVAPOTRANSPIRATION =          86840.60
           STREAMFLOW =        5815200.10             STREAMFLOW =          10445.19
     GW BOUNDARY FLOW =         145803.26       GW BOUNDARY FLOW =            648.21

   INFLOWS - OUTFLOWS =        -366069.86     INFLOWS - OUTFLOWS =         -97934.00
             --------                                   --------

 TOTAL STORAGE CHANGE =        -360191.65         STORAGE CHANGE =         -97944.04
       --------------                             --------------
         LAND SURFACE =         203563.85           LAND SURFACE =         -23453.82
            SOIL ZONE =         895242.07              SOIL ZONE =         -55574.21
     UNSATURATED ZONE =        -768889.48       UNSATURATED ZONE =         -13462.63
       SATURATED ZONE =        -690108.08         SATURATED ZONE =          -5453.37

 OVERALL BUDGET ERROR =          -5878.22           BUDGET ERROR =             10.04


  PERCENT DISCREPANCY =             -0.03    PERCENT DISCREPANCY =              0.01



1
 SUMMARY VOLUMETRIC BUDGET FOR GSFLOW 
 DATE: 05 19 1981              CUMULATIVE TIME STEP:     231
 MODFLOW STRESS PERIOD      2     CURRENT TIME STEP:     231     ITERATIONS:      16

 -----------------------------------------------------------------------------------

   CUMULATIVE VOLUMES               L**3   RATES FOR THIS TIME STEP           L**3/T
   ------------------                      ------------------------

                                     IN                                         IN
                                     --                                         --
        PRECIPITATION =        1.7837D+07          PRECIPITATION =         169045.43
           STREAMFLOW =                               STREAMFLOW =                  
     GW BOUNDARY FLOW =                         GW BOUNDARY FLOW =                  


                                    OUT                                        OUT
                                    ---                                        ---
   EVAPOTRANSPIRATION =        1.1305D+07     EVAPOTRANSPIRATION =          31098.89
           STREAMFLOW =        5940366.05             STREAMFLOW =          23234.61
     GW BOUNDARY FLOW =         150342.73       GW BOUNDARY FLOW =            649.42

   INFLOWS - OUTFLOWS =         441073.42     INFLOWS - OUTFLOWS =         114062.51
             --------                                   --------

 TOTAL STORAGE CHANGE =         446897.07         STORAGE CHANGE =         114052.20
       --------------                             --------------
         LAND SURFACE =         191593.15           LAND SURFACE =          21576.41
            SOIL ZONE =        1825435.24              SOIL ZONE =         101541.78
     UNSATURATED ZONE =        -839516.58       UNSATURATED ZONE =          -2922.53
       SATURATED ZONE =        -730614.74         SATURATED ZONE =          -6143.46

 OVERALL BUDGET ERROR =          -5823.65           BUDGET ERROR =             10.31


  PERCENT DISCREPANCY =             -0.03    PERCENT DISCREPANCY =              0.01



1
 SUMMARY VOLUMETRIC BUDGET FOR GSFLOW 
 DATE: 05 26 1981              CUMULATIVE TIME STEP:     238
 MODFLOW STRESS PERIOD      2     CURRENT TIME STEP:     238     ITERATIONS:      14

 -----------------------------------------------------------------------------------

   CUMULATIVE VOLUMES               L**3   RATES FOR THIS TIME STEP           L**3/T
   ------------------                      ------------------------

                                     IN                                         IN
                                     --                                         --
        PRECIPITATION =        1.8252D+07          PRECIPITATION =         284303.67
           STREAMFLOW =                               STREAMFLOW =                  
     GW BOUNDARY FLOW =                         GW BOUNDARY FLOW =                  


                                    OUT                                        OUT
                                    ---                                        ---
   EVAPOTRANSPIRATION =        1.2151D+07     EVAPOTRANSPIRATION =         134158.24
           STREAMFLOW =        6042689.88             STREAMFLOW =          18556.98
     GW BOUNDARY FLOW =         154883.19       GW BOUNDARY FLOW =            648.44

   INFLOWS - OUTFLOWS =         -96330.06     INFLOWS - OUTFLOWS =         130940.03
             --------                                   --------

 TOTAL STORAGE CHANGE =         -90546.55         STORAGE CHANGE =         130934.40
       --------------                             --------------
         LAND SURFACE =         117061.98           LAND SURFACE =          -7172.33
            SOIL ZONE =        1478400.08              SOIL ZONE =         155102.56
     UNSATURATED ZONE =        -906991.32       UNSATURATED ZONE =         -10461.63
       SATURATED ZONE =        -779017.29         SATURATED ZONE =          -6534.20

 OVERALL BUDGET ERROR =          -5783.51           BUDGET ERROR =              5.62


  PERCENT DISCREPANCY =             -0.03    PERCENT DISCREPANCY =              0.00



1
 SUMMARY VOLUMETRIC BUDGET FOR GSFLOW 
 DATE: 06 02 1981              CUMULATIVE TIME STEP:     245
 MODFLOW STRESS PERIOD      2     CURRENT TIME STEP:     245     ITERATIONS:      12

 -----------------------------------------------------------------------------------

   CUMULATIVE VOLUMES               L**3   RATES FOR THIS TIME STEP           L**3/T
   ------------------                      ------------------------

                                     IN                                         IN
                                     --                                         --
        PRECIPITATION =        1.8318D+07          PRECIPITATION =          50869.96
           STREAMFLOW =                               STREAMFLOW =                  
     GW BOUNDARY FLOW =                         GW BOUNDARY FLOW =                  


                                    OUT                                        OUT
                                    ---                                        ---
   EVAPOTRANSPIRATION =        1.2935D+07     EVAPOTRANSPIRATION =          75141.92
           STREAMFLOW =        6108673.78             STREAMFLOW =           7512.85
     GW BOUNDARY FLOW =         159418.11       GW BOUNDARY FLOW =            647.43

   INFLOWS - OUTFLOWS =        -884656.26     INFLOWS - OUTFLOWS =         -32432.25
             --------                                   --------

 TOTAL STORAGE CHANGE =        -878899.68         STORAGE CHANGE =         -32438.94
       --------------                             --------------
         LAND SURFACE =          73864.41           LAND SURFACE =          28867.96
            SOIL ZONE =         874770.53              SOIL ZONE =         -40118.73
     UNSATURATED ZONE =        -991072.54       UNSATURATED ZONE =         -12612.06
       SATURATED ZONE =        -836462.08         SATURATED ZONE =          -8576.11

 OVERALL BUDGET ERROR =          -5756.57           BUDGET ERROR =              6.69


  PERCENT DISCREPANCY =             -0.03    PERCENT DISCREPANCY =              0.01



1
 SUMMARY VOLUMETRIC BUDGET FOR GSFLOW 
 DATE: 06 09 1981              CUMULATIVE TIME STEP:     252
 MODFLOW STRESS PERIOD      2     CURRENT TIME STEP:     252     ITERATIONS:      15

 -----------------------------------------------------------------------------------

   CUMULATIVE VOLUMES               L**3   RATES FOR THIS TIME STEP           L**3/T
   ------------------                      ------------------------

                                     IN                                         IN
                                     --                                         --
        PRECIPITATION =        1.8318D+07          PRECIPITATION =                  
           STREAMFLOW =                               STREAMFLOW =                  
     GW BOUNDARY FLOW =                         GW BOUNDARY FLOW =                  


                                    OUT                                        OUT
                                    ---                                        ---
   EVAPOTRANSPIRATION =        1.3424D+07     EVAPOTRANSPIRATION =          54103.06
           STREAMFLOW =        6155308.05             STREAMFLOW =           6318.33
     GW BOUNDARY FLOW =         163948.23       GW BOUNDARY FLOW =            647.01

   INFLOWS - OUTFLOWS =       -1424801.65     INFLOWS - OUTFLOWS =         -61068.40
             --------                                   --------

 TOTAL STORAGE CHANGE =       -1419041.85         STORAGE CHANGE =         -61064.68
       --------------                             --------------
         LAND SURFACE =          12494.43           LAND SURFACE =          -2879.30
            SOIL ZONE =         549776.52              SOIL ZONE =         -36039.80
     UNSATURATED ZONE =       -1080161.98       UNSATURATED ZONE =         -12730.82
       SATURATED ZONE =        -901150.81         SATURATED ZONE =          -9414.75

 OVERALL BUDGET ERROR =          -5759.81           BUDGET ERROR =             -3.72


  PERCENT DISCREPANCY =             -0.03    PERCENT DISCREPANCY =             -0.01



1
 SUMMARY VOLUMETRIC BUDGET FOR GSFLOW 
 DATE: 06 16 1981              CUMULATIVE TIME STEP:     259
 MODFLOW STRESS PERIOD      2     CURRENT TIME STEP:     259     ITERATIONS:      13

 -----------------------------------------------------------------------------------

   CUMULATIVE VOLUMES               L**3   RATES FOR THIS TIME STEP           L**3/T
   ------------------                      ------------------------

                                     IN                                         IN
                                     --                                         --
        PRECIPITATION =        1.8318D+07          PRECIPITATION =                  
           STREAMFLOW =                               STREAMFLOW =                  
     GW BOUNDARY FLOW =                         GW BOUNDARY FLOW =                  


                                    OUT                                        OUT
                                    ---                                        ---
   EVAPOTRANSPIRATION =        1.3619D+07     EVAPOTRANSPIRATION =          45019.85
           STREAMFLOW =        6198398.07             STREAMFLOW =           6103.50
     GW BOUNDARY FLOW =         168476.41       GW BOUNDARY FLOW =            646.81

   INFLOWS - OUTFLOWS =       -1667651.17     INFLOWS - OUTFLOWS =         -51770.16
             --------                                   --------

 TOTAL STORAGE CHANGE =       -1661918.51         STORAGE CHANGE =         -51772.41
       --------------                             --------------
         LAND SURFACE =           5635.72           LAND SURFACE =          -1248.06
            SOIL ZONE =         467627.17              SOIL ZONE =         -28674.91
     UNSATURATED ZONE =       -1168310.92       UNSATURATED ZONE =         -12360.11
       SATURATED ZONE =        -966870.48         SATURATED ZONE =          -9489.32

 OVERALL BUDGET ERROR =          -5732.66           BUDGET ERROR =              2.24


  PERCENT DISCREPANCY =             -0.03    PERCENT DISCREPANCY =              0.00



1
 SUMMARY VOLUMETRIC BUDGET FOR GSFLOW 
 DATE: 06 23 1981              CUMULATIVE TIME STEP:     266
 MODFLOW STRESS PERIOD      2     CURRENT TIME STEP:     266     ITERATIONS:      10

 -----------------------------------------------------------------------------------

   CUMULATIVE VOLUMES               L**3   RATES FOR THIS TIME STEP           L**3/T
   ------------------                      ------------------------

                                     IN                                         IN
                                     --                                         --
        PRECIPITATION =        1.8318D+07          PRECIPITATION =                  
           STREAMFLOW =                               STREAMFLOW =                  
     GW BOUNDARY FLOW =                         GW BOUNDARY FLOW =                  


                                    OUT                                        OUT
                                    ---                                        ---
   EVAPOTRANSPIRATION =        1.3912D+07     EVAPOTRANSPIRATION =          34325.85
           STREAMFLOW =        6240345.58             STREAMFLOW =           5936.42
     GW BOUNDARY FLOW =         173004.58       GW BOUNDARY FLOW =            647.18

   INFLOWS - OUTFLOWS =       -2006975.76     INFLOWS - OUTFLOWS =         -40909.45
             --------                                   --------

 TOTAL STORAGE CHANGE =       -2001245.36         STORAGE CHANGE =         -40903.25
       --------------                             --------------
         LAND SURFACE =        2.7649D-09           LAND SURFACE =                  
            SOIL ZONE =         285736.55              SOIL ZONE =         -19343.10
     UNSATURATED ZONE =       -1251479.90       UNSATURATED ZONE =         -11530.17
       SATURATED ZONE =       -1035502.01         SATURATED ZONE =         -10029.98

 OVERALL BUDGET ERROR =          -5730.40           BUDGET ERROR =             -6.20


  PERCENT DISCREPANCY =             -0.03    PERCENT DISCREPANCY =             -0.02



1
 SUMMARY VOLUMETRIC BUDGET FOR GSFLOW 
 DATE: 06 30 1981              CUMULATIVE TIME STEP:     273
 MODFLOW STRESS PERIOD      2     CURRENT TIME STEP:     273     ITERATIONS:      13

 -----------------------------------------------------------------------------------

   CUMULATIVE VOLUMES               L**3   RATES FOR THIS TIME STEP           L**3/T
   ------------------                      ------------------------

                                     IN                                         IN
[...]
                                    ---                                        ---
   EVAPOTRANSPIRATION =        2.8743D+08     EVAPOTRANSPIRATION =          36390.65
           STREAMFLOW =        1.8197D+08             STREAMFLOW =           6969.65
     GW BOUNDARY FLOW =        3738526.94       GW BOUNDARY FLOW =            651.43

   INFLOWS - OUTFLOWS =       -8080546.79     INFLOWS - OUTFLOWS =         -44011.73
             --------                                   --------

 TOTAL STORAGE CHANGE =       -8025764.43         STORAGE CHANGE =         -44034.84
       --------------                             --------------
         LAND SURFACE =           3413.18           LAND SURFACE =           -684.22
            SOIL ZONE =         250908.24              SOIL ZONE =         -21886.30
     UNSATURATED ZONE =        5451804.60       UNSATURATED ZONE =         -27618.92
       SATURATED ZONE =       -1.3732D+07         SATURATED ZONE =           6154.60

 OVERALL BUDGET ERROR =         -54782.36           BUDGET ERROR =             23.11


  PERCENT DISCREPANCY =             -0.01    PERCENT DISCREPANCY =              0.05



1
 SUMMARY VOLUMETRIC BUDGET FOR GSFLOW 
 DATE: 07 30 1996              CUMULATIVE TIME STEP:    5782
 MODFLOW STRESS PERIOD      2     CURRENT TIME STEP:    5782     ITERATIONS:      15

 -----------------------------------------------------------------------------------

   CUMULATIVE VOLUMES               L**3   RATES FOR THIS TIME STEP           L**3/T
   ------------------                      ------------------------

                                     IN                                         IN
                                     --                                         --
        PRECIPITATION =        4.6511D+08          PRECIPITATION =                  
           STREAMFLOW =                               STREAMFLOW =                  
     GW BOUNDARY FLOW =                         GW BOUNDARY FLOW =                  


                                    OUT                                        OUT
                                    ---                                        ---
   EVAPOTRANSPIRATION =        2.8765D+08     EVAPOTRANSPIRATION =          24136.44
           STREAMFLOW =        1.8202D+08             STREAMFLOW =           6805.38
     GW BOUNDARY FLOW =        3743085.17       GW BOUNDARY FLOW =            650.96

   INFLOWS - OUTFLOWS =       -8306998.74     INFLOWS - OUTFLOWS =         -31592.79
             --------                                   --------

 TOTAL STORAGE CHANGE =       -8252384.27         STORAGE CHANGE =         -31613.57
       --------------                             --------------
         LAND SURFACE =            303.81           LAND SURFACE =           -298.55
            SOIL ZONE =         176243.71              SOIL ZONE =         -10193.17
     UNSATURATED ZONE =        5263073.85       UNSATURATED ZONE =         -26505.15
       SATURATED ZONE =       -1.3692D+07         SATURATED ZONE =           5383.30

 OVERALL BUDGET ERROR =         -54614.46           BUDGET ERROR =             20.78


  PERCENT DISCREPANCY =             -0.01    PERCENT DISCREPANCY =              0.07



1
 SUMMARY VOLUMETRIC BUDGET FOR GSFLOW 
 DATE: 08 06 1996              CUMULATIVE TIME STEP:    5789
 MODFLOW STRESS PERIOD      2     CURRENT TIME STEP:    5789     ITERATIONS:      14

 -----------------------------------------------------------------------------------

   CUMULATIVE VOLUMES               L**3   RATES FOR THIS TIME STEP           L**3/T
   ------------------                      ------------------------

                                     IN                                         IN
                                     --                                         --
        PRECIPITATION =        4.6511D+08          PRECIPITATION =                  
           STREAMFLOW =                               STREAMFLOW =                  
     GW BOUNDARY FLOW =                         GW BOUNDARY FLOW =                  


                                    OUT                                        OUT
                                    ---                                        ---
   EVAPOTRANSPIRATION =        2.8778D+08     EVAPOTRANSPIRATION =          15889.68
           STREAMFLOW =        1.8207D+08             STREAMFLOW =           6607.54
     GW BOUNDARY FLOW =        3747641.14       GW BOUNDARY FLOW =            650.80

   INFLOWS - OUTFLOWS =       -8485852.46     INFLOWS - OUTFLOWS =         -23148.02
             --------                                   --------

 TOTAL STORAGE CHANGE =       -8431380.53         STORAGE CHANGE =         -23170.80
       --------------                             --------------
         LAND SURFACE =       -3.9835D-08           LAND SURFACE =                  
            SOIL ZONE =         144171.17              SOIL ZONE =          -2352.04
     UNSATURATED ZONE =        5081844.52       UNSATURATED ZONE =         -25657.73
       SATURATED ZONE =       -1.3657D+07         SATURATED ZONE =           4838.98

 OVERALL BUDGET ERROR =         -54471.93           BUDGET ERROR =             22.78


  PERCENT DISCREPANCY =             -0.01    PERCENT DISCREPANCY =              0.10



1
 SUMMARY VOLUMETRIC BUDGET FOR GSFLOW 
 DATE: 08 13 1996              CUMULATIVE TIME STEP:    5796
 MODFLOW STRESS PERIOD      2     CURRENT TIME STEP:    5796     ITERATIONS:      15

 -----------------------------------------------------------------------------------

   CUMULATIVE VOLUMES               L**3   RATES FOR THIS TIME STEP           L**3/T
   ------------------                      ------------------------

                                     IN                                         IN
                                     --                                         --
        PRECIPITATION =        4.6531D+08          PRECIPITATION =          54454.08
           STREAMFLOW =                               STREAMFLOW =                  
     GW BOUNDARY FLOW =                         GW BOUNDARY FLOW =                  


                                    OUT                                        OUT
                                    ---                                        ---
   EVAPOTRANSPIRATION =        2.8794D+08     EVAPOTRANSPIRATION =          31064.26
           STREAMFLOW =        1.8212D+08             STREAMFLOW =           7796.47
     GW BOUNDARY FLOW =        3752196.32       GW BOUNDARY FLOW =            650.77

   INFLOWS - OUTFLOWS =       -8492809.13     INFLOWS - OUTFLOWS =          14942.58
             --------                                   --------

 TOTAL STORAGE CHANGE =       -8438468.78         STORAGE CHANGE =          14924.91
       --------------                             --------------
         LAND SURFACE =          34505.06           LAND SURFACE =                  
            SOIL ZONE =         246781.78              SOIL ZONE =          35329.30
     UNSATURATED ZONE =        4905620.83       UNSATURATED ZONE =         -24584.34
       SATURATED ZONE =       -1.3625D+07         SATURATED ZONE =           4179.94

 OVERALL BUDGET ERROR =         -54340.35           BUDGET ERROR =             17.68


  PERCENT DISCREPANCY =             -0.01    PERCENT DISCREPANCY =              0.03



1
 SUMMARY VOLUMETRIC BUDGET FOR GSFLOW 
 DATE: 08 20 1996              CUMULATIVE TIME STEP:    5803
 MODFLOW STRESS PERIOD      2     CURRENT TIME STEP:    5803     ITERATIONS:      15

 -----------------------------------------------------------------------------------

   CUMULATIVE VOLUMES               L**3   RATES FOR THIS TIME STEP           L**3/T
   ------------------                      ------------------------

                                     IN                                         IN
                                     --                                         --
        PRECIPITATION =        4.6531D+08          PRECIPITATION =                  
           STREAMFLOW =                               STREAMFLOW =                  
     GW BOUNDARY FLOW =                         GW BOUNDARY FLOW =                  


                                    OUT                                        OUT
                                    ---                                        ---
   EVAPOTRANSPIRATION =        2.8812D+08     EVAPOTRANSPIRATION =          17073.98
           STREAMFLOW =        1.8216D+08             STREAMFLOW =           6413.41
     GW BOUNDARY FLOW =        3756749.87       GW BOUNDARY FLOW =            650.33

   INFLOWS - OUTFLOWS =       -8730627.91     INFLOWS - OUTFLOWS =         -24137.72
             --------                                   --------

 TOTAL STORAGE CHANGE =       -8676424.36         STORAGE CHANGE =         -24151.74
       --------------                             --------------
         LAND SURFACE =       -3.9836D-08           LAND SURFACE =                  
            SOIL ZONE =         186036.07              SOIL ZONE =          -3878.51
     UNSATURATED ZONE =        4740883.18       UNSATURATED ZONE =         -22861.53
       SATURATED ZONE =       -1.3603D+07         SATURATED ZONE =           2588.30

 OVERALL BUDGET ERROR =         -54203.55           BUDGET ERROR =             14.02


  PERCENT DISCREPANCY =             -0.01    PERCENT DISCREPANCY =              0.06



1
 SUMMARY VOLUMETRIC BUDGET FOR GSFLOW 
 DATE: 08 27 1996              CUMULATIVE TIME STEP:    5810
 MODFLOW STRESS PERIOD      2     CURRENT TIME STEP:    5810     ITERATIONS:      15

 -----------------------------------------------------------------------------------

   CUMULATIVE VOLUMES               L**3   RATES FOR THIS TIME STEP           L**3/T
   ------------------                      ------------------------

                                     IN                                         IN
                                     --                                         --
        PRECIPITATION =        4.6531D+08          PRECIPITATION =                  
           STREAMFLOW =                               STREAMFLOW =                  
     GW BOUNDARY FLOW =                         GW BOUNDARY FLOW =                  


                                    OUT                                        OUT
                                    ---                                        ---
   EVAPOTRANSPIRATION =        2.8826D+08     EVAPOTRANSPIRATION =          15213.76
           STREAMFLOW =        1.8221D+08             STREAMFLOW =           6257.44
     GW BOUNDARY FLOW =        3761300.79       GW BOUNDARY FLOW =            649.96

   INFLOWS - OUTFLOWS =       -8912767.48     INFLOWS - OUTFLOWS =         -22121.15
             --------                                   --------

 TOTAL STORAGE CHANGE =       -8858682.30         STORAGE CHANGE =         -22136.96
       --------------                             --------------
         LAND SURFACE =       -3.9836D-08           LAND SURFACE =                  
            SOIL ZONE =         144708.31              SOIL ZONE =          -2110.54
     UNSATURATED ZONE =        4584142.53       UNSATURATED ZONE =         -22290.19
       SATURATED ZONE =       -1.3588D+07         SATURATED ZONE =           2263.76

 OVERALL BUDGET ERROR =         -54085.19           BUDGET ERROR =             15.81


  PERCENT DISCREPANCY =             -0.01    PERCENT DISCREPANCY =              0.07



1
 SUMMARY VOLUMETRIC BUDGET FOR GSFLOW 
 DATE: 09 03 1996              CUMULATIVE TIME STEP:    5817
 MODFLOW STRESS PERIOD      2     CURRENT TIME STEP:    5817     ITERATIONS:      13

 -----------------------------------------------------------------------------------

   CUMULATIVE VOLUMES               L**3   RATES FOR THIS TIME STEP           L**3/T
   ------------------                      ------------------------

                                     IN                                         IN
                                     --                                         --
        PRECIPITATION =        4.6531D+08          PRECIPITATION =                  
           STREAMFLOW =                               STREAMFLOW =                  
     GW BOUNDARY FLOW =                         GW BOUNDARY FLOW =                  


                                    OUT                                        OUT
                                    ---                                        ---
   EVAPOTRANSPIRATION =        2.8836D+08     EVAPOTRANSPIRATION =          14024.01
           STREAMFLOW =        1.8225D+08             STREAMFLOW =           6154.33
     GW BOUNDARY FLOW =        3765848.94       GW BOUNDARY FLOW =            649.58

   INFLOWS - OUTFLOWS =       -9066027.17     INFLOWS - OUTFLOWS =         -20827.92
             --------                                   --------

 TOTAL STORAGE CHANGE =       -9012121.35         STORAGE CHANGE =         -20858.90
       --------------                             --------------
         LAND SURFACE =       -3.9836D-08           LAND SURFACE =                  
            SOIL ZONE =         130583.27              SOIL ZONE =          -1050.74
     UNSATURATED ZONE =        4432575.37       UNSATURATED ZONE =         -21072.77
       SATURATED ZONE =       -1.3575D+07         SATURATED ZONE =           1264.62

 OVERALL BUDGET ERROR =         -53905.82           BUDGET ERROR =             30.98


  PERCENT DISCREPANCY =             -0.01    PERCENT DISCREPANCY =              0.15



1
 SUMMARY VOLUMETRIC BUDGET FOR GSFLOW 
 DATE: 09 10 1996              CUMULATIVE TIME STEP:    5824
 MODFLOW STRESS PERIOD      2     CURRENT TIME STEP:    5824     ITERATIONS:      13

 -----------------------------------------------------------------------------------

   CUMULATIVE VOLUMES               L**3   RATES FOR THIS TIME STEP           L**3/T
   ------------------                      ------------------------

                                     IN                                         IN
                                     --                                         --
        PRECIPITATION =        4.6531D+08          PRECIPITATION =                  
           STREAMFLOW =                               STREAMFLOW =                  
     GW BOUNDARY FLOW =                         GW BOUNDARY FLOW =                  


                                    OUT                                        OUT
                                    ---                                        ---
   EVAPOTRANSPIRATION =        2.8844D+08     EVAPOTRANSPIRATION =          13144.34
           STREAMFLOW =        1.8229D+08             STREAMFLOW =           6061.07
     GW BOUNDARY FLOW =        3770394.66       GW BOUNDARY FLOW =            649.25

   INFLOWS - OUTFLOWS =       -9196788.56     INFLOWS - OUTFLOWS =         -19854.66
             --------                                   --------

 TOTAL STORAGE CHANGE =       -9143055.70         STORAGE CHANGE =         -19884.78
       --------------                             --------------
         LAND SURFACE =       -3.9836D-08           LAND SURFACE =                  
            SOIL ZONE =         137375.05              SOIL ZONE =           -297.53
     UNSATURATED ZONE =        4287502.55       UNSATURATED ZONE =         -20715.49
       SATURATED ZONE =       -1.3568D+07         SATURATED ZONE =           1128.24

 OVERALL BUDGET ERROR =         -53732.86           BUDGET ERROR =             30.12


  PERCENT DISCREPANCY =             -0.01    PERCENT DISCREPANCY =              0.15



1
 SUMMARY VOLUMETRIC BUDGET FOR GSFLOW 
 DATE: 09 17 1996              CUMULATIVE TIME STEP:    5831
 MODFLOW STRESS PERIOD      2     CURRENT TIME STEP:    5831     ITERATIONS:      14

 -----------------------------------------------------------------------------------

   CUMULATIVE VOLUMES               L**3   RATES FOR THIS TIME STEP           L**3/T
   ------------------                      ------------------------

                                     IN                                         IN
                                     --                                         --
        PRECIPITATION =        4.6637D+08          PRECIPITATION =                  
           STREAMFLOW =                               STREAMFLOW =                  
     GW BOUNDARY FLOW =                         GW BOUNDARY FLOW =                  


                                    OUT                                        OUT
                                    ---                                        ---
   EVAPOTRANSPIRATION =        2.8863D+08     EVAPOTRANSPIRATION =          67792.43
           STREAMFLOW =        1.8236D+08             STREAMFLOW =           9946.39
     GW BOUNDARY FLOW =        3774939.93       GW BOUNDARY FLOW =            649.65

   INFLOWS - OUTFLOWS =       -8402158.21     INFLOWS - OUTFLOWS =         -78388.47
             --------                                   --------

 TOTAL STORAGE CHANGE =       -8348620.34         STORAGE CHANGE =         -78412.74
       --------------                             --------------
         LAND SURFACE =       -3.9836D-08           LAND SURFACE =         -34505.06
            SOIL ZONE =        1065851.74              SOIL ZONE =         -24524.60
     UNSATURATED ZONE =        4143971.60       UNSATURATED ZONE =         -20105.72
       SATURATED ZONE =       -1.3558D+07         SATURATED ZONE =            722.65

 OVERALL BUDGET ERROR =         -53537.87           BUDGET ERROR =             24.26


  PERCENT DISCREPANCY =             -0.01    PERCENT DISCREPANCY =              0.03



1
 SUMMARY VOLUMETRIC BUDGET FOR GSFLOW 
 DATE: 09 24 1996              CUMULATIVE TIME STEP:    5838
 MODFLOW STRESS PERIOD      2     CURRENT TIME STEP:    5838     ITERATIONS:      12

 -----------------------------------------------------------------------------------

   CUMULATIVE VOLUMES               L**3   RATES FOR THIS TIME STEP           L**3/T
   ------------------                      ------------------------

                                     IN                                         IN
                                     --                                         --
        PRECIPITATION =        4.6637D+08          PRECIPITATION =                  
           STREAMFLOW =                               STREAMFLOW =                  
     GW BOUNDARY FLOW =                         GW BOUNDARY FLOW =                  


                                    OUT                                        OUT
                                    ---                                        ---
   EVAPOTRANSPIRATION =        2.8914D+08     EVAPOTRANSPIRATION =          55401.00
           STREAMFLOW =        1.8241D+08             STREAMFLOW =           6247.42
     GW BOUNDARY FLOW =        3779483.57       GW BOUNDARY FLOW =            648.76

   INFLOWS - OUTFLOWS =       -8967353.00     INFLOWS - OUTFLOWS =         -62297.17
             --------                                   --------

 TOTAL STORAGE CHANGE =       -8914015.67         STORAGE CHANGE =         -62334.75
       --------------                             --------------
         LAND SURFACE =       -3.9836D-08           LAND SURFACE =                  
            SOIL ZONE =         635540.34              SOIL ZONE =         -43128.42
     UNSATURATED ZONE =        4007091.07       UNSATURATED ZONE =         -19139.40
       SATURATED ZONE =       -1.3557D+07         SATURATED ZONE =            -66.94

 OVERALL BUDGET ERROR =         -53337.33           BUDGET ERROR =             37.58


  PERCENT DISCREPANCY =             -0.01    PERCENT DISCREPANCY =              0.06



